version 2
run Run6-0-20181204-23:47:51-45817
attr configname Run6
attr datetime 20181204-23:47:51
attr experiment Run6
attr inifile omnetpp.ini
attr iterationvars ""
attr iterationvarsf ""
attr measurement ""
attr network testbed.src.simulation.Internet
attr processid 45817
attr repetition 0
attr replication #0
attr resultdir results
attr runnumber 0
attr seedset 0
param Internet.SetupfileName "\"Topology 1 7 LCD   ARC2   8192\""

vector 0 Internet.originServ Serves ETV
vector 1 Internet.Proxy1 hitsTotal ETV
vector 2 Internet.Proxy1 missesTotal ETV
vector 3 Internet.Proxy1 Hitrate ETV
vector 4 Internet.Proxy1 AverageDelay ETV
vector 5 Internet.Proxy1 TimeToFirstSegment ETV
vector 6 Internet.Proxy1 ReadOperations ETV
vector 7 Internet.Proxy1 WriteOperations ETV
vector 8 Internet.Proxy2 hitsTotal ETV
vector 9 Internet.Proxy2 missesTotal ETV
vector 10 Internet.Proxy2 Hitrate ETV
vector 11 Internet.Proxy2 AverageDelay ETV
vector 12 Internet.Proxy2 TimeToFirstSegment ETV
vector 13 Internet.Proxy2 ReadOperations ETV
vector 14 Internet.Proxy2 WriteOperations ETV
vector 15 Internet.Proxy3 hitsTotal ETV
vector 16 Internet.Proxy3 missesTotal ETV
vector 17 Internet.Proxy3 Hitrate ETV
vector 18 Internet.Proxy3 AverageDelay ETV
vector 19 Internet.Proxy3 TimeToFirstSegment ETV
vector 20 Internet.Proxy3 ReadOperations ETV
vector 21 Internet.Proxy3 WriteOperations ETV
vector 22 Internet.Proxy4 hitsTotal ETV
vector 23 Internet.Proxy4 missesTotal ETV
vector 24 Internet.Proxy4 Hitrate ETV
vector 25 Internet.Proxy4 AverageDelay ETV
vector 26 Internet.Proxy4 TimeToFirstSegment ETV
vector 27 Internet.Proxy4 ReadOperations ETV
vector 28 Internet.Proxy4 WriteOperations ETV
vector 29 Internet.Proxy5 hitsTotal ETV
vector 30 Internet.Proxy5 missesTotal ETV
vector 31 Internet.Proxy5 Hitrate ETV
vector 32 Internet.Proxy5 AverageDelay ETV
vector 33 Internet.Proxy5 TimeToFirstSegment ETV
vector 34 Internet.Proxy5 ReadOperations ETV
vector 35 Internet.Proxy5 WriteOperations ETV
vector 36 Internet.Proxy6 hitsTotal ETV
vector 37 Internet.Proxy6 missesTotal ETV
vector 38 Internet.Proxy6 Hitrate ETV
vector 39 Internet.Proxy6 AverageDelay ETV
vector 40 Internet.Proxy6 TimeToFirstSegment ETV
vector 41 Internet.Proxy6 ReadOperations ETV
vector 42 Internet.Proxy6 WriteOperations ETV
vector 43 Internet.Proxy7 hitsTotal ETV
vector 44 Internet.Proxy7 missesTotal ETV
vector 45 Internet.Proxy7 Hitrate ETV
vector 46 Internet.Proxy7 AverageDelay ETV
vector 47 Internet.Proxy7 TimeToFirstSegment ETV
vector 48 Internet.Proxy7 ReadOperations ETV
vector 49 Internet.Proxy7 WriteOperations ETV
0	1	0	0
0	2	0	0
0	50	3600	4
0	96	7200	3
0	144	10800	4
0	192	14400	4
0	238	18000	3
0	286	21600	4
0	334	25200	4
0	382	28800	4
0	430	32400	4
0	478	36000	4
0	526	39600	4
0	574	43200	4
0	622	46800	4
0	670	50400	4
0	718	54000	4
0	766	57600	4
0	814	61200	4
0	862	64800	4
0	910	68400	4
0	958	72000	4
0	1006	75600	4
0	1054	79200	4
0	1102	82800	4
0	1150	86400	4
0	1198	90000	4
0	1246	93600	4
0	1294	97200	4
0	1342	100800	4
0	1390	104400	4
0	1436	108000	3
0	1484	111600	4
0	1532	115200	4
0	1580	118800	4
0	1628	122400	4
0	1676	126000	4
0	1724	129600	4
0	1772	133200	4
0	1820	136800	4
0	1868	140400	4
0	1916	144000	4
0	1964	147600	4
0	2008	151200	3
0	2056	154800	4
0	2104	158400	4
0	2152	162000	4
0	2200	165600	4
0	2248	169200	4
0	2296	172800	4
0	2344	176400	4
0	2392	180000	4
0	2440	183600	4
0	2488	187200	4
0	2536	190800	4
0	2584	194400	4
0	2632	198000	4
0	2680	201600	4
0	2728	205200	4
0	2774	208800	3
0	2822	212400	4
0	2870	216000	4
0	2918	219600	4
0	2966	223200	4
0	3014	226800	4
0	3062	230400	4
0	3110	234000	4
0	3158	237600	4
0	3206	241200	4
0	3254	244800	4
0	3302	248400	4
0	3350	252000	4
0	3394	255600	3
0	3440	259200	3
0	3488	262800	4
0	3536	266400	4
0	3584	270000	4
0	3632	273600	4
0	3680	277200	4
0	3728	280800	4
0	3772	284400	3
0	3820	288000	4
0	3868	291600	4
0	3916	295200	4
0	3964	298800	4
0	4012	302400	4
0	4060	306000	4
0	4106	309600	3
0	4154	313200	4
0	4202	316800	4
0	4250	320400	4
0	4298	324000	4
0	4346	327600	4
0	4394	331200	4
0	4442	334800	4
0	4490	338400	4
0	4538	342000	4
0	4586	345600	4
0	4634	349200	4
0	4682	352800	4
0	4730	356400	4
0	4778	360000	4
0	4826	363600	4
0	4874	367200	4
0	4922	370800	4
0	4970	374400	4
0	5018	378000	4
0	5066	381600	4
0	5114	385200	4
0	5162	388800	4
0	5208	392400	3
0	5256	396000	4
0	5304	399600	4
0	5352	403200	4
0	5400	406800	4
0	5448	410400	4
0	5496	414000	4
0	5544	417600	4
0	5590	421200	3
0	5638	424800	4
0	5686	428400	4
0	5734	432000	4
0	5782	435600	4
0	5828	439200	3
0	5876	442800	4
0	5924	446400	4
0	5972	450000	4
0	6020	453600	4
0	6068	457200	4
0	6116	460800	4
0	6164	464400	4
0	6212	468000	4
0	6260	471600	4
0	6308	475200	4
0	6356	478800	4
0	6404	482400	4
0	6452	486000	4
0	6500	489600	4
0	6548	493200	4
0	6596	496800	4
0	6644	500400	4
0	6690	504000	3
0	6738	507600	4
0	6786	511200	4
0	6834	514800	4
0	6882	518400	4
0	6930	522000	4
0	6978	525600	4
0	7026	529200	4
0	7074	532800	4
0	7122	536400	4
0	7170	540000	4
0	7214	543600	3
0	7262	547200	4
0	7310	550800	4
0	7358	554400	4
0	7406	558000	4
0	7450	561600	3
0	7498	565200	4
0	7546	568800	4
0	7594	572400	4
0	7642	576000	4
0	7690	579600	4
0	7738	583200	4
0	7786	586800	4
0	7834	590400	4
0	7880	594000	3
0	7928	597600	4
0	7976	601200	4
0	8024	604800	4
0	8031	604800	0
1	3	0	0
1	52	3600	0
1	98	7200	1
1	146	10800	1
1	194	14400	1
1	240	18000	2
1	288	21600	2
1	336	25200	2
1	384	28800	2
1	432	32400	2
1	480	36000	2
1	528	39600	2
1	576	43200	2
1	624	46800	2
1	672	50400	2
1	720	54000	2
1	768	57600	2
1	816	61200	2
1	864	64800	2
1	912	68400	2
1	960	72000	2
1	1008	75600	2
1	1056	79200	2
1	1104	82800	2
1	1152	86400	2
1	1200	90000	2
1	1248	93600	2
1	1296	97200	2
1	1344	100800	2
1	1392	104400	2
1	1438	108000	3
1	1486	111600	3
1	1534	115200	3
1	1582	118800	3
1	1630	122400	3
1	1678	126000	3
1	1726	129600	3
1	1774	133200	3
1	1822	136800	3
1	1870	140400	3
1	1918	144000	3
1	1966	147600	3
1	2010	151200	3
1	2058	154800	3
1	2106	158400	3
1	2154	162000	3
1	2202	165600	3
1	2250	169200	3
1	2298	172800	3
1	2346	176400	3
1	2394	180000	3
1	2442	183600	3
1	2490	187200	3
1	2538	190800	3
1	2586	194400	3
1	2634	198000	3
1	2682	201600	3
1	2730	205200	3
1	2776	208800	4
1	2824	212400	4
1	2872	216000	4
1	2920	219600	4
1	2968	223200	4
1	3016	226800	4
1	3064	230400	4
1	3112	234000	4
1	3160	237600	4
1	3208	241200	4
1	3256	244800	4
1	3304	248400	4
1	3352	252000	4
1	3396	255600	4
1	3442	259200	5
1	3490	262800	5
1	3538	266400	5
1	3586	270000	5
1	3634	273600	5
1	3682	277200	5
1	3730	280800	5
1	3774	284400	5
1	3822	288000	5
1	3870	291600	5
1	3918	295200	5
1	3966	298800	5
1	4014	302400	5
1	4062	306000	5
1	4108	309600	6
1	4156	313200	6
1	4204	316800	6
1	4252	320400	6
1	4300	324000	6
1	4348	327600	6
1	4396	331200	6
1	4444	334800	6
1	4492	338400	6
1	4540	342000	6
1	4588	345600	6
1	4636	349200	6
1	4684	352800	6
1	4732	356400	6
1	4780	360000	6
1	4828	363600	6
1	4875	367200	6
1	4924	370800	6
1	4972	374400	6
1	5020	378000	6
1	5068	381600	6
1	5116	385200	6
1	5164	388800	6
1	5210	392400	7
1	5258	396000	7
1	5306	399600	7
1	5354	403200	7
1	5402	406800	7
1	5450	410400	7
1	5498	414000	7
1	5546	417600	7
1	5592	421200	8
1	5640	424800	8
1	5688	428400	8
1	5736	432000	8
1	5784	435600	8
1	5830	439200	9
1	5878	442800	9
1	5926	446400	9
1	5974	450000	9
1	6022	453600	9
1	6070	457200	9
1	6118	460800	9
1	6166	464400	9
1	6214	468000	9
1	6262	471600	9
1	6310	475200	9
1	6358	478800	9
1	6406	482400	9
1	6454	486000	9
1	6502	489600	9
1	6550	493200	9
1	6598	496800	9
1	6646	500400	9
1	6692	504000	10
1	6740	507600	10
1	6788	511200	10
1	6836	514800	10
1	6884	518400	10
1	6932	522000	10
1	6980	525600	10
1	7028	529200	10
1	7076	532800	10
1	7124	536400	10
1	7172	540000	10
1	7216	543600	10
1	7264	547200	10
1	7312	550800	10
1	7360	554400	10
1	7408	558000	10
1	7452	561600	10
1	7500	565200	10
1	7548	568800	10
1	7596	572400	10
1	7644	576000	10
1	7692	579600	10
1	7740	583200	10
1	7788	586800	10
1	7836	590400	10
1	7882	594000	11
1	7930	597600	11
1	7978	601200	11
1	8025	604800	11
2	3	0	0
2	52	3600	4
2	98	7200	7
2	146	10800	11
2	194	14400	15
2	240	18000	18
2	288	21600	22
2	336	25200	26
2	384	28800	30
2	432	32400	34
2	480	36000	38
2	528	39600	42
2	576	43200	46
2	624	46800	50
2	672	50400	54
2	720	54000	58
2	768	57600	62
2	816	61200	66
2	864	64800	70
2	912	68400	74
2	960	72000	78
2	1008	75600	82
2	1056	79200	86
2	1104	82800	90
2	1152	86400	94
2	1200	90000	98
2	1248	93600	102
2	1296	97200	106
2	1344	100800	110
2	1392	104400	114
2	1438	108000	117
2	1486	111600	121
2	1534	115200	125
2	1582	118800	129
2	1630	122400	133
2	1678	126000	137
2	1726	129600	141
2	1774	133200	145
2	1822	136800	149
2	1870	140400	153
2	1918	144000	157
2	1966	147600	161
2	2010	151200	164
2	2058	154800	168
2	2106	158400	172
2	2154	162000	176
2	2202	165600	180
2	2250	169200	184
2	2298	172800	188
2	2346	176400	192
2	2394	180000	196
2	2442	183600	200
2	2490	187200	204
2	2538	190800	208
2	2586	194400	212
2	2634	198000	216
2	2682	201600	220
2	2730	205200	224
2	2776	208800	227
2	2824	212400	231
2	2872	216000	235
2	2920	219600	239
2	2968	223200	243
2	3016	226800	247
2	3064	230400	251
2	3112	234000	255
2	3160	237600	259
2	3208	241200	263
2	3256	244800	267
2	3304	248400	271
2	3352	252000	275
2	3396	255600	278
2	3442	259200	281
2	3490	262800	285
2	3538	266400	289
2	3586	270000	293
2	3634	273600	297
2	3682	277200	301
2	3730	280800	305
2	3774	284400	308
2	3822	288000	312
2	3870	291600	316
2	3918	295200	320
2	3966	298800	324
2	4014	302400	328
2	4062	306000	332
2	4108	309600	335
2	4156	313200	339
2	4204	316800	343
2	4252	320400	347
2	4300	324000	351
2	4348	327600	355
2	4396	331200	359
2	4444	334800	363
2	4492	338400	367
2	4540	342000	371
2	4588	345600	375
2	4636	349200	379
2	4684	352800	383
2	4732	356400	387
2	4780	360000	391
2	4828	363600	395
2	4875	367200	399
2	4924	370800	403
2	4972	374400	407
2	5020	378000	411
2	5068	381600	415
2	5116	385200	419
2	5164	388800	423
2	5210	392400	426
2	5258	396000	430
2	5306	399600	434
2	5354	403200	438
2	5402	406800	442
2	5450	410400	446
2	5498	414000	450
2	5546	417600	454
2	5592	421200	457
2	5640	424800	461
2	5688	428400	465
2	5736	432000	469
2	5784	435600	473
2	5830	439200	476
2	5878	442800	480
2	5926	446400	484
2	5974	450000	488
2	6022	453600	492
2	6070	457200	496
2	6118	460800	500
2	6166	464400	504
2	6214	468000	508
2	6262	471600	512
2	6310	475200	516
2	6358	478800	520
2	6406	482400	524
2	6454	486000	528
2	6502	489600	532
2	6550	493200	536
2	6598	496800	540
2	6646	500400	544
2	6692	504000	547
2	6740	507600	551
2	6788	511200	555
2	6836	514800	559
2	6884	518400	563
2	6932	522000	567
2	6980	525600	571
2	7028	529200	575
2	7076	532800	579
2	7124	536400	583
2	7172	540000	587
2	7216	543600	590
2	7264	547200	594
2	7312	550800	598
2	7360	554400	602
2	7408	558000	606
2	7452	561600	609
2	7500	565200	613
2	7548	568800	617
2	7596	572400	621
2	7644	576000	625
2	7692	579600	629
2	7740	583200	633
2	7788	586800	637
2	7836	590400	641
2	7882	594000	644
2	7930	597600	648
2	7978	601200	652
2	8025	604800	656
3	3	0	0
3	52	3600	0
3	98	7200	0.25
3	146	10800	0
3	194	14400	0
3	240	18000	0.25
3	288	21600	0
3	336	25200	0
3	384	28800	0
3	432	32400	0
3	480	36000	0
3	528	39600	0
3	576	43200	0
3	624	46800	0
3	672	50400	0
3	720	54000	0
3	768	57600	0
3	816	61200	0
3	864	64800	0
3	912	68400	0
3	960	72000	0
3	1008	75600	0
3	1056	79200	0
3	1104	82800	0
3	1152	86400	0
3	1200	90000	0
3	1248	93600	0
3	1296	97200	0
3	1344	100800	0
3	1392	104400	0
3	1438	108000	0.25
3	1486	111600	0
3	1534	115200	0
3	1582	118800	0
3	1630	122400	0
3	1678	126000	0
3	1726	129600	0
3	1774	133200	0
3	1822	136800	0
3	1870	140400	0
3	1918	144000	0
3	1966	147600	0
3	2010	151200	0
3	2058	154800	0
3	2106	158400	0
3	2154	162000	0
3	2202	165600	0
3	2250	169200	0
3	2298	172800	0
3	2346	176400	0
3	2394	180000	0
3	2442	183600	0
3	2490	187200	0
3	2538	190800	0
3	2586	194400	0
3	2634	198000	0
3	2682	201600	0
3	2730	205200	0
3	2776	208800	0.25
3	2824	212400	0
3	2872	216000	0
3	2920	219600	0
3	2968	223200	0
3	3016	226800	0
3	3064	230400	0
3	3112	234000	0
3	3160	237600	0
3	3208	241200	0
3	3256	244800	0
3	3304	248400	0
3	3352	252000	0
3	3396	255600	0
3	3442	259200	0.25
3	3490	262800	0
3	3538	266400	0
3	3586	270000	0
3	3634	273600	0
3	3682	277200	0
3	3730	280800	0
3	3774	284400	0
3	3822	288000	0
3	3870	291600	0
3	3918	295200	0
3	3966	298800	0
3	4014	302400	0
3	4062	306000	0
3	4108	309600	0.25
3	4156	313200	0
3	4204	316800	0
3	4252	320400	0
3	4300	324000	0
3	4348	327600	0
3	4396	331200	0
3	4444	334800	0
3	4492	338400	0
3	4540	342000	0
3	4588	345600	0
3	4636	349200	0
3	4684	352800	0
3	4732	356400	0
3	4780	360000	0
3	4828	363600	0
3	4875	367200	0
3	4924	370800	0
3	4972	374400	0
3	5020	378000	0
3	5068	381600	0
3	5116	385200	0
3	5164	388800	0
3	5210	392400	0.25
3	5258	396000	0
3	5306	399600	0
3	5354	403200	0
3	5402	406800	0
3	5450	410400	0
3	5498	414000	0
3	5546	417600	0
3	5592	421200	0.25
3	5640	424800	0
3	5688	428400	0
3	5736	432000	0
3	5784	435600	0
3	5830	439200	0.25
3	5878	442800	0
3	5926	446400	0
3	5974	450000	0
3	6022	453600	0
3	6070	457200	0
3	6118	460800	0
3	6166	464400	0
3	6214	468000	0
3	6262	471600	0
3	6310	475200	0
3	6358	478800	0
3	6406	482400	0
3	6454	486000	0
3	6502	489600	0
3	6550	493200	0
3	6598	496800	0
3	6646	500400	0
3	6692	504000	0.25
3	6740	507600	0
3	6788	511200	0
3	6836	514800	0
3	6884	518400	0
3	6932	522000	0
3	6980	525600	0
3	7028	529200	0
3	7076	532800	0
3	7124	536400	0
3	7172	540000	0
3	7216	543600	0
3	7264	547200	0
3	7312	550800	0
3	7360	554400	0
3	7408	558000	0
3	7452	561600	0
3	7500	565200	0
3	7548	568800	0
3	7596	572400	0
3	7644	576000	0
3	7692	579600	0
3	7740	583200	0
3	7788	586800	0
3	7836	590400	0
3	7882	594000	0.25
3	7930	597600	0
3	7978	601200	0
3	8025	604800	0
3	8031	604800	-nan
4	3	0	0
4	52	3600	0.015999999999972
4	98	7200	0.012000000000285
4	146	10800	0.016000000000076
4	194	14400	0.015999999999622
4	240	18000	0.011999999999716
4	288	21600	0.015999999999622
4	336	25200	0.015999999999622
4	384	28800	0.015999999999622
4	432	32400	0.015999999999622
4	480	36000	0.01600000000235
4	528	39600	0.01600000000326
4	576	43200	0.01600000000326
4	624	46800	0.01600000000326
4	672	50400	0.01600000000326
4	720	54000	0.01600000000326
4	768	57600	0.01600000000326
4	816	61200	0.01600000000326
4	864	64800	0.01600000000326
4	912	68400	0.015999999992346
4	960	72000	0.015999999988708
4	1008	75600	0.015999999988708
4	1056	79200	0.015999999988708
4	1104	82800	0.015999999988708
4	1152	86400	0.015999999988708
4	1200	90000	0.015999999988708
4	1248	93600	0.015999999988708
4	1296	97200	0.015999999988708
4	1344	100800	0.015999999988708
4	1392	104400	0.015999999988708
4	1438	108000	0.011999999991531
4	1486	111600	0.015999999988708
4	1534	115200	0.015999999988708
4	1582	118800	0.015999999988708
4	1630	122400	0.015999999988708
4	1678	126000	0.015999999988708
4	1726	129600	0.015999999988708
4	1774	133200	0.015999999995984
4	1822	136800	0.01600000000326
4	1870	140400	0.01600000000326
4	1918	144000	0.01600000000326
4	1966	147600	0.01600000000326
4	2010	151200	0.01600000000326
4	2058	154800	0.01600000000326
4	2106	158400	0.01600000000326
4	2154	162000	0.01600000000326
4	2202	165600	0.01600000000326
4	2250	169200	0.01600000000326
4	2298	172800	0.01600000000326
4	2346	176400	0.01600000000326
4	2394	180000	0.01600000000326
4	2442	183600	0.01600000000326
4	2490	187200	0.01600000000326
4	2538	190800	0.01600000000326
4	2586	194400	0.01600000000326
4	2634	198000	0.01600000000326
4	2682	201600	0.01600000000326
4	2730	205200	0.01600000000326
4	2776	208800	0.012000000002445
4	2824	212400	0.01600000000326
4	2872	216000	0.01600000000326
4	2920	219600	0.01600000000326
4	2968	223200	0.01600000000326
4	3016	226800	0.01600000000326
4	3064	230400	0.01600000000326
4	3112	234000	0.01600000000326
4	3160	237600	0.01600000000326
4	3208	241200	0.01600000000326
4	3256	244800	0.01600000000326
4	3304	248400	0.01600000000326
4	3352	252000	0.01600000000326
4	3396	255600	0.01600000000326
4	3442	259200	0.012000000002445
4	3490	262800	0.01600000000326
4	3538	266400	0.01600000000326
4	3586	270000	0.01600000000326
4	3634	273600	0.01600000000326
4	3682	277200	0.01600000000326
4	3730	280800	0.01600000000326
4	3774	284400	0.01600000000326
4	3822	288000	0.01600000000326
4	3870	291600	0.01600000000326
4	3918	295200	0.01600000000326
4	3966	298800	0.01600000000326
4	4014	302400	0.01600000000326
4	4062	306000	0.01600000000326
4	4108	309600	0.012000000002445
4	4156	313200	0.01600000000326
4	4204	316800	0.01600000000326
4	4252	320400	0.01600000000326
4	4300	324000	0.01600000000326
4	4348	327600	0.01600000000326
4	4396	331200	0.01600000000326
4	4444	334800	0.01600000000326
4	4492	338400	0.01600000000326
4	4540	342000	0.01600000000326
4	4588	345600	0.01600000000326
4	4636	349200	0.01600000000326
4	4684	352800	0.01600000000326
4	4732	356400	0.01600000000326
4	4780	360000	0.01600000000326
4	4828	363600	0.01600000000326
4	4875	367200	0.01600000000326
4	4924	370800	0.01600000000326
4	4972	374400	0.01600000000326
4	5020	378000	0.01600000000326
4	5068	381600	0.01600000000326
4	5116	385200	0.01600000000326
4	5164	388800	0.01600000000326
4	5210	392400	0.012000000002445
4	5258	396000	0.01600000000326
4	5306	399600	0.01600000000326
4	5354	403200	0.01600000000326
4	5402	406800	0.01600000000326
4	5450	410400	0.01600000000326
4	5498	414000	0.01600000000326
4	5546	417600	0.01600000000326
4	5592	421200	0.012000000002445
4	5640	424800	0.01600000000326
4	5688	428400	0.01600000000326
4	5736	432000	0.01600000000326
4	5784	435600	0.01600000000326
4	5830	439200	0.012000000002445
4	5878	442800	0.01600000000326
4	5926	446400	0.01600000000326
4	5974	450000	0.01600000000326
4	6022	453600	0.01600000000326
4	6070	457200	0.01600000000326
4	6118	460800	0.01600000000326
4	6166	464400	0.01600000000326
4	6214	468000	0.01600000000326
4	6262	471600	0.01600000000326
4	6310	475200	0.01600000000326
4	6358	478800	0.01600000000326
4	6406	482400	0.01600000000326
4	6454	486000	0.01600000000326
4	6502	489600	0.01600000000326
4	6550	493200	0.01600000000326
4	6598	496800	0.01600000000326
4	6646	500400	0.01600000000326
4	6692	504000	0.012000000002445
4	6740	507600	0.01600000000326
4	6788	511200	0.01600000000326
4	6836	514800	0.01600000000326
4	6884	518400	0.01600000000326
4	6932	522000	0.01600000000326
4	6980	525600	0.016000000017812
4	7028	529200	0.016000000061467
4	7076	532800	0.016000000061467
4	7124	536400	0.016000000061467
4	7172	540000	0.016000000061467
4	7216	543600	0.016000000061467
4	7264	547200	0.016000000061467
4	7312	550800	0.016000000061467
4	7360	554400	0.016000000061467
4	7408	558000	0.016000000061467
4	7452	561600	0.016000000061467
4	7500	565200	0.016000000061467
4	7548	568800	0.016000000061467
4	7596	572400	0.016000000061467
4	7644	576000	0.016000000061467
4	7692	579600	0.016000000061467
4	7740	583200	0.016000000061467
4	7788	586800	0.016000000061467
4	7836	590400	0.016000000061467
4	7882	594000	0.0120000000461
4	7930	597600	0.016000000061467
4	7978	601200	0.016000000061467
4	8025	604800	0.016000000061467
5	3	0	0
5	52	3600	0.015999999999972
5	98	7200	0.012000000000285
5	146	10800	0.016000000000228
5	194	14400	0.015999999999622
5	240	18000	0.010666666666414
5	288	21600	0.015999999999622
5	336	25200	0.015999999999622
5	384	28800	0.015999999999622
5	432	32400	0.015999999999622
5	480	36000	0.01600000000235
5	528	39600	0.01600000000326
5	576	43200	0.01600000000326
5	624	46800	0.01600000000326
5	672	50400	0.01600000000326
5	720	54000	0.01600000000326
5	768	57600	0.01600000000326
5	816	61200	0.01600000000326
5	864	64800	0.01600000000326
5	912	68400	0.015999999992346
5	960	72000	0.015999999988708
5	1008	75600	0.015999999988708
5	1056	79200	0.015999999988708
5	1104	82800	0.015999999988708
5	1152	86400	0.015999999988708
5	1200	90000	0.015999999988708
5	1248	93600	0.015999999988708
5	1296	97200	0.015999999988708
5	1344	100800	0.015999999988708
5	1392	104400	0.015999999988708
5	1438	108000	0.011999999991531
5	1486	111600	0.015999999988708
5	1534	115200	0.015999999988708
5	1582	118800	0.015999999988708
5	1630	122400	0.015999999988708
5	1678	126000	0.015999999988708
5	1726	129600	0.015999999988708
5	1774	133200	0.015999999998409
5	1822	136800	0.01600000000326
5	1870	140400	0.01600000000326
5	1918	144000	0.01600000000326
5	1966	147600	0.01600000000326
5	2010	151200	0.01600000000326
5	2058	154800	0.01600000000326
5	2106	158400	0.01600000000326
5	2154	162000	0
5	2202	165600	0.01600000000326
5	2250	169200	0.01600000000326
5	2298	172800	0.01600000000326
5	2346	176400	0.01600000000326
5	2394	180000	0.01600000000326
5	2442	183600	0.01600000000326
5	2490	187200	0.01600000000326
5	2538	190800	0.01600000000326
5	2586	194400	0.01600000000326
5	2634	198000	0.01600000000326
5	2682	201600	0.01600000000326
5	2730	205200	0.01600000000326
5	2776	208800	0.01066666666884
5	2824	212400	0.01600000000326
5	2872	216000	0.01600000000326
5	2920	219600	0.01600000000326
5	2968	223200	0.01600000000326
5	3016	226800	0.01600000000326
5	3064	230400	0.01600000000326
5	3112	234000	0.01600000000326
5	3160	237600	0.01600000000326
5	3208	241200	0.01600000000326
5	3256	244800	0
5	3304	248400	0
5	3352	252000	0.01600000000326
5	3396	255600	0
5	3442	259200	0.01600000000326
5	3490	262800	0.01600000000326
5	3538	266400	0.01600000000326
5	3586	270000	0
5	3634	273600	0.01600000000326
5	3682	277200	0.01600000000326
5	3730	280800	0
5	3774	284400	0.01600000000326
5	3822	288000	0.01600000000326
5	3870	291600	0.01600000000326
5	3918	295200	0
5	3966	298800	0
5	4014	302400	0.01600000000326
5	4062	306000	0.01600000000326
5	4108	309600	0
5	4156	313200	0
5	4204	316800	0.01600000000326
5	4252	320400	0
5	4300	324000	0
5	4348	327600	0.01600000000326
5	4396	331200	0.01600000000326
5	4444	334800	0
5	4492	338400	0.01600000000326
5	4540	342000	0.01600000000326
5	4588	345600	0.01600000000326
5	4636	349200	0.01600000000326
5	4684	352800	0
5	4732	356400	0.01600000000326
5	4780	360000	0.01600000000326
5	4828	363600	0
5	4875	367200	0
5	4924	370800	0.01600000000326
5	4972	374400	0.01600000000326
5	5020	378000	0.01600000000326
5	5068	381600	0
5	5116	385200	0.01600000000326
5	5164	388800	0.01600000000326
5	5210	392400	0.01600000000326
5	5258	396000	0.01600000000326
5	5306	399600	0
5	5354	403200	0
5	5402	406800	0.01600000000326
5	5450	410400	0.01600000000326
5	5498	414000	0.01600000000326
5	5546	417600	0.01600000000326
5	5592	421200	0.01600000000326
5	5640	424800	0.01600000000326
5	5688	428400	0.01600000000326
5	5736	432000	0
5	5784	435600	0.01600000000326
5	5830	439200	0.01600000000326
5	5878	442800	0.01600000000326
5	5926	446400	0.01600000000326
5	5974	450000	0
5	6022	453600	0.01600000000326
5	6070	457200	0
5	6118	460800	0
5	6166	464400	0
5	6214	468000	0.01600000000326
5	6262	471600	0.01600000000326
5	6310	475200	0.01600000000326
5	6358	478800	0.01600000000326
5	6406	482400	0.01600000000326
5	6454	486000	0.01600000000326
5	6502	489600	0.01600000000326
5	6550	493200	0.01600000000326
5	6598	496800	0
5	6646	500400	0
5	6692	504000	0
5	6740	507600	0
5	6788	511200	0.01600000000326
5	6836	514800	0
5	6884	518400	0
5	6932	522000	0.01600000000326
5	6980	525600	0.01600000000326
5	7028	529200	0.016000000061467
5	7076	532800	0
5	7124	536400	0.016000000061467
5	7172	540000	0.016000000061467
5	7216	543600	0
5	7264	547200	0
5	7312	550800	0.016000000061467
5	7360	554400	0.016000000061467
5	7408	558000	0.016000000061467
5	7452	561600	0
5	7500	565200	0
5	7548	568800	0
5	7596	572400	0
5	7644	576000	0
5	7692	579600	0.016000000061467
5	7740	583200	0
5	7788	586800	0
5	7836	590400	0.016000000061467
5	7882	594000	0
5	7930	597600	0.016000000061467
5	7978	601200	0.016000000061467
5	8025	604800	0.016000000061467
6	3	0	0
6	52	3600	8
6	98	7200	10
6	146	10800	8
6	194	14400	8
6	240	18000	10
6	288	21600	8
6	336	25200	8
6	384	28800	8
6	432	32400	8
6	480	36000	8
6	528	39600	8
6	576	43200	8
6	624	46800	8
6	672	50400	8
6	720	54000	8
6	768	57600	8
6	816	61200	8
6	864	64800	8
6	912	68400	8
6	960	72000	8
6	1008	75600	8
6	1056	79200	8
6	1104	82800	8
6	1152	86400	8
6	1200	90000	8
6	1248	93600	8
6	1296	97200	8
6	1344	100800	8
6	1392	104400	8
6	1438	108000	10
6	1486	111600	8
6	1534	115200	8
6	1582	118800	8
6	1630	122400	8
6	1678	126000	8
6	1726	129600	8
6	1774	133200	8
6	1822	136800	8
6	1870	140400	8
6	1918	144000	8
6	1966	147600	8
6	2010	151200	6
6	2058	154800	8
6	2106	158400	8
6	2154	162000	8
6	2202	165600	8
6	2250	169200	8
6	2298	172800	8
6	2346	176400	8
6	2394	180000	8
6	2442	183600	8
6	2490	187200	8
6	2538	190800	8
6	2586	194400	8
6	2634	198000	8
6	2682	201600	8
6	2730	205200	8
6	2776	208800	10
6	2824	212400	8
6	2872	216000	8
6	2920	219600	8
6	2968	223200	8
6	3016	226800	8
6	3064	230400	8
6	3112	234000	8
6	3160	237600	8
6	3208	241200	8
6	3256	244800	8
6	3304	248400	8
6	3352	252000	8
6	3396	255600	6
6	3442	259200	10
6	3490	262800	8
6	3538	266400	8
6	3586	270000	8
6	3634	273600	8
6	3682	277200	8
6	3730	280800	8
6	3774	284400	6
6	3822	288000	8
6	3870	291600	8
6	3918	295200	8
6	3966	298800	8
6	4014	302400	8
6	4062	306000	8
6	4108	309600	10
6	4156	313200	8
6	4204	316800	8
6	4252	320400	8
6	4300	324000	8
6	4348	327600	8
6	4396	331200	8
6	4444	334800	8
6	4492	338400	8
6	4540	342000	8
6	4588	345600	8
6	4636	349200	8
6	4684	352800	8
6	4732	356400	8
6	4780	360000	8
6	4828	363600	8
6	4875	367200	8
6	4924	370800	8
6	4972	374400	8
6	5020	378000	8
6	5068	381600	8
6	5116	385200	8
6	5164	388800	8
6	5210	392400	10
6	5258	396000	8
6	5306	399600	8
6	5354	403200	8
6	5402	406800	8
6	5450	410400	8
6	5498	414000	8
6	5546	417600	8
6	5592	421200	10
6	5640	424800	8
6	5688	428400	8
6	5736	432000	8
6	5784	435600	8
6	5830	439200	10
6	5878	442800	8
6	5926	446400	8
6	5974	450000	8
6	6022	453600	8
6	6070	457200	8
6	6118	460800	8
6	6166	464400	8
6	6214	468000	8
6	6262	471600	8
6	6310	475200	8
6	6358	478800	8
6	6406	482400	8
6	6454	486000	8
6	6502	489600	8
6	6550	493200	8
6	6598	496800	8
6	6646	500400	8
6	6692	504000	10
6	6740	507600	8
6	6788	511200	8
6	6836	514800	8
6	6884	518400	8
6	6932	522000	8
6	6980	525600	8
6	7028	529200	8
6	7076	532800	8
6	7124	536400	8
6	7172	540000	8
6	7216	543600	6
6	7264	547200	8
6	7312	550800	8
6	7360	554400	8
6	7408	558000	8
6	7452	561600	6
6	7500	565200	8
6	7548	568800	8
6	7596	572400	8
6	7644	576000	8
6	7692	579600	8
6	7740	583200	8
6	7788	586800	8
6	7836	590400	8
6	7882	594000	10
6	7930	597600	8
6	7978	601200	8
6	8025	604800	8
6	8031	604800	0
7	3	0	0
7	52	3600	4
7	98	7200	8
7	146	10800	8
7	194	14400	7
7	240	18000	8
7	288	21600	6
7	336	25200	10
7	384	28800	8
7	432	32400	8
7	480	36000	7
7	528	39600	8
7	576	43200	8
7	624	46800	8
7	672	50400	8
7	720	54000	9
7	768	57600	8
7	816	61200	9
7	864	64800	6
7	912	68400	8
7	960	72000	8
7	1008	75600	9
7	1056	79200	7
7	1104	82800	7
7	1152	86400	10
7	1200	90000	8
7	1248	93600	8
7	1296	97200	7
7	1344	100800	7
7	1392	104400	9
7	1438	108000	6
7	1486	111600	9
7	1534	115200	7
7	1582	118800	8
7	1630	122400	11
7	1678	126000	8
7	1726	129600	8
7	1774	133200	6
7	1822	136800	10
7	1870	140400	7
7	1918	144000	9
7	1966	147600	7
7	2010	151200	8
7	2058	154800	6
7	2106	158400	10
7	2154	162000	8
7	2202	165600	7
7	2250	169200	9
7	2298	172800	9
7	2346	176400	6
7	2394	180000	10
7	2442	183600	7
7	2490	187200	8
7	2538	190800	10
7	2586	194400	8
7	2634	198000	8
7	2682	201600	6
7	2730	205200	10
7	2776	208800	7
7	2824	212400	6
7	2872	216000	8
7	2920	219600	9
7	2968	223200	10
7	3016	226800	8
7	3064	230400	7
7	3112	234000	9
7	3160	237600	8
7	3208	241200	8
7	3256	244800	9
7	3304	248400	6
7	3352	252000	8
7	3396	255600	6
7	3442	259200	7
7	3490	262800	10
7	3538	266400	9
7	3586	270000	7
7	3634	273600	8
7	3682	277200	8
7	3730	280800	8
7	3774	284400	9
7	3822	288000	6
7	3870	291600	9
7	3918	295200	8
7	3966	298800	7
7	4014	302400	8
7	4062	306000	7
7	4108	309600	7
7	4156	313200	8
7	4204	316800	7
7	4252	320400	9
7	4300	324000	9
7	4348	327600	7
7	4396	331200	7
7	4444	334800	9
7	4492	338400	7
7	4540	342000	8
7	4588	345600	8
7	4636	349200	9
7	4684	352800	8
7	4732	356400	10
7	4780	360000	6
7	4828	363600	7
7	4875	367200	12
7	4924	370800	6
7	4972	374400	6
7	5020	378000	8
7	5068	381600	10
7	5116	385200	9
7	5164	388800	8
7	5210	392400	7
7	5258	396000	7
7	5306	399600	8
7	5354	403200	9
7	5402	406800	8
7	5450	410400	7
7	5498	414000	9
7	5546	417600	6
7	5592	421200	11
7	5640	424800	9
7	5688	428400	7
7	5736	432000	7
7	5784	435600	8
7	5830	439200	12
7	5878	442800	6
7	5926	446400	9
7	5974	450000	6
7	6022	453600	10
7	6070	457200	8
7	6118	460800	8
7	6166	464400	10
7	6214	468000	7
7	6262	471600	7
7	6310	475200	11
7	6358	478800	7
7	6406	482400	8
7	6454	486000	8
7	6502	489600	8
7	6550	493200	7
7	6598	496800	11
7	6646	500400	7
7	6692	504000	5
7	6740	507600	10
7	6788	511200	7
7	6836	514800	8
7	6884	518400	11
7	6932	522000	8
7	6980	525600	9
7	7028	529200	6
7	7076	532800	8
7	7124	536400	8
7	7172	540000	6
7	7216	543600	7
7	7264	547200	9
7	7312	550800	6
7	7360	554400	10
7	7408	558000	9
7	7452	561600	7
7	7500	565200	7
7	7548	568800	8
7	7596	572400	8
7	7644	576000	7
7	7692	579600	10
7	7740	583200	7
7	7788	586800	7
7	7836	590400	9
7	7882	594000	6
7	7930	597600	11
7	7978	601200	7
7	8025	604800	7
7	8031	604800	0
8	4	0	0
8	53	3600	0
8	99	7200	0
8	147	10800	0
8	195	14400	0
8	241	18000	0
8	289	21600	0
8	337	25200	0
8	385	28800	0
8	433	32400	0
8	481	36000	0
8	529	39600	0
8	577	43200	0
8	625	46800	0
8	673	50400	0
8	721	54000	0
8	769	57600	0
8	817	61200	0
8	865	64800	0
8	913	68400	0
8	961	72000	0
8	1009	75600	0
8	1057	79200	0
8	1105	82800	0
8	1153	86400	0
8	1201	90000	0
8	1249	93600	0
8	1297	97200	0
8	1345	100800	0
8	1393	104400	0
8	1439	108000	0
8	1487	111600	0
8	1535	115200	0
8	1583	118800	0
8	1631	122400	0
8	1679	126000	0
8	1727	129600	0
8	1775	133200	0
8	1823	136800	0
8	1871	140400	0
8	1919	144000	0
8	1967	147600	0
8	2011	151200	1
8	2059	154800	1
8	2107	158400	1
8	2155	162000	1
8	2203	165600	1
8	2251	169200	1
8	2299	172800	1
8	2347	176400	1
8	2395	180000	1
8	2443	183600	1
8	2491	187200	1
8	2539	190800	1
8	2587	194400	1
8	2635	198000	1
8	2683	201600	1
8	2731	205200	1
8	2777	208800	1
8	2825	212400	1
8	2873	216000	1
8	2921	219600	1
8	2969	223200	1
8	3017	226800	1
8	3065	230400	1
8	3113	234000	1
8	3161	237600	1
8	3209	241200	1
8	3257	244800	1
8	3305	248400	1
8	3353	252000	1
8	3397	255600	2
8	3443	259200	2
8	3491	262800	2
8	3539	266400	2
8	3587	270000	2
8	3635	273600	2
8	3683	277200	2
8	3731	280800	2
8	3775	284400	2
8	3823	288000	2
8	3871	291600	2
8	3919	295200	2
8	3967	298800	2
8	4015	302400	2
8	4063	306000	2
8	4109	309600	2
8	4157	313200	2
8	4205	316800	2
8	4253	320400	2
8	4301	324000	2
8	4349	327600	2
8	4397	331200	2
8	4445	334800	2
8	4493	338400	2
8	4541	342000	2
8	4589	345600	2
8	4637	349200	2
8	4685	352800	2
8	4733	356400	2
8	4781	360000	2
8	4829	363600	2
8	4876	367200	2
8	4925	370800	2
8	4973	374400	2
8	5021	378000	2
8	5069	381600	2
8	5117	385200	2
8	5165	388800	2
8	5211	392400	2
8	5259	396000	2
8	5307	399600	2
8	5355	403200	2
8	5403	406800	2
8	5451	410400	2
8	5499	414000	2
8	5547	417600	2
8	5593	421200	2
8	5641	424800	2
8	5689	428400	2
8	5737	432000	2
8	5785	435600	2
8	5831	439200	2
8	5879	442800	2
8	5927	446400	2
8	5975	450000	2
8	6023	453600	2
8	6071	457200	2
8	6119	460800	2
8	6167	464400	2
8	6215	468000	2
8	6263	471600	2
8	6311	475200	2
8	6359	478800	2
8	6407	482400	2
8	6455	486000	2
8	6503	489600	2
8	6551	493200	2
8	6599	496800	2
8	6647	500400	2
8	6693	504000	2
8	6741	507600	2
8	6789	511200	2
8	6837	514800	2
8	6885	518400	2
8	6933	522000	2
8	6981	525600	2
8	7029	529200	2
8	7077	532800	2
8	7125	536400	2
8	7173	540000	2
8	7217	543600	2
8	7265	547200	2
8	7313	550800	2
8	7361	554400	2
8	7409	558000	2
8	7453	561600	2
8	7501	565200	2
8	7549	568800	2
8	7597	572400	2
8	7645	576000	2
8	7693	579600	2
8	7741	583200	2
8	7789	586800	2
8	7837	590400	2
8	7883	594000	2
8	7931	597600	2
8	7979	601200	2
8	8026	604800	2
9	4	0	0
9	53	3600	3
9	99	7200	5
9	147	10800	7
9	195	14400	8
9	241	18000	11
9	289	21600	13
9	337	25200	16
9	385	28800	19
9	433	32400	19
9	481	36000	20
9	529	39600	21
9	577	43200	23
9	625	46800	26
9	673	50400	28
9	721	54000	29
9	769	57600	30
9	817	61200	32
9	865	64800	34
9	913	68400	36
9	961	72000	39
9	1009	75600	42
9	1057	79200	43
9	1105	82800	44
9	1153	86400	47
9	1201	90000	49
9	1249	93600	51
9	1297	97200	53
9	1345	100800	56
9	1393	104400	57
9	1439	108000	59
9	1487	111600	60
9	1535	115200	62
9	1583	118800	64
9	1631	122400	67
9	1679	126000	69
9	1727	129600	72
9	1775	133200	72
9	1823	136800	74
9	1871	140400	75
9	1919	144000	78
9	1967	147600	79
9	2011	151200	80
9	2059	154800	83
9	2107	158400	86
9	2155	162000	89
9	2203	165600	91
9	2251	169200	94
9	2299	172800	95
9	2347	176400	95
9	2395	180000	97
9	2443	183600	99
9	2491	187200	101
9	2539	190800	102
9	2587	194400	106
9	2635	198000	109
9	2683	201600	111
9	2731	205200	112
9	2777	208800	114
9	2825	212400	115
9	2873	216000	117
9	2921	219600	120
9	2969	223200	123
9	3017	226800	124
9	3065	230400	126
9	3113	234000	128
9	3161	237600	129
9	3209	241200	132
9	3257	244800	133
9	3305	248400	135
9	3353	252000	138
9	3397	255600	140
9	3443	259200	143
9	3491	262800	145
9	3539	266400	149
9	3587	270000	150
9	3635	273600	151
9	3683	277200	153
9	3731	280800	155
9	3775	284400	155
9	3823	288000	156
9	3871	291600	159
9	3919	295200	162
9	3967	298800	163
9	4015	302400	166
9	4063	306000	169
9	4109	309600	169
9	4157	313200	173
9	4205	316800	174
9	4253	320400	174
9	4301	324000	176
9	4349	327600	178
9	4397	331200	181
9	4445	334800	184
9	4493	338400	187
9	4541	342000	190
9	4589	345600	193
9	4637	349200	196
9	4685	352800	197
9	4733	356400	201
9	4781	360000	204
9	4829	363600	205
9	4876	367200	205
9	4925	370800	206
9	4973	374400	208
9	5021	378000	211
9	5069	381600	213
9	5117	385200	217
9	5165	388800	218
9	5211	392400	219
9	5259	396000	220
9	5307	399600	222
9	5355	403200	223
9	5403	406800	224
9	5451	410400	225
9	5499	414000	227
9	5547	417600	228
9	5593	421200	229
9	5641	424800	230
9	5689	428400	232
9	5737	432000	234
9	5785	435600	235
9	5831	439200	238
9	5879	442800	240
9	5927	446400	242
9	5975	450000	243
9	6023	453600	245
9	6071	457200	246
9	6119	460800	248
9	6167	464400	249
9	6215	468000	250
9	6263	471600	251
9	6311	475200	254
9	6359	478800	257
9	6407	482400	259
9	6455	486000	262
9	6503	489600	263
9	6551	493200	266
9	6599	496800	268
9	6647	500400	269
9	6693	504000	269
9	6741	507600	272
9	6789	511200	273
9	6837	514800	275
9	6885	518400	276
9	6933	522000	280
9	6981	525600	282
9	7029	529200	284
9	7077	532800	286
9	7125	536400	288
9	7173	540000	288
9	7217	543600	288
9	7265	547200	290
9	7313	550800	294
9	7361	554400	296
9	7409	558000	298
9	7453	561600	299
9	7501	565200	302
9	7549	568800	305
9	7597	572400	306
9	7645	576000	308
9	7693	579600	311
9	7741	583200	311
9	7789	586800	313
9	7837	590400	316
9	7883	594000	318
9	7931	597600	320
9	7979	601200	323
9	8026	604800	326
10	4	0	0
10	53	3600	0
10	99	7200	0
10	147	10800	0
10	195	14400	0
10	241	18000	0
10	289	21600	0
10	337	25200	0
10	385	28800	0
10	433	32400	0
10	481	36000	0
10	529	39600	0
10	577	43200	0
10	625	46800	0
10	673	50400	0
10	721	54000	0
10	769	57600	0
10	817	61200	0
10	865	64800	0
10	913	68400	0
10	961	72000	0
10	1009	75600	0
10	1057	79200	0
10	1105	82800	0
10	1153	86400	0
10	1201	90000	0
10	1249	93600	0
10	1297	97200	0
10	1345	100800	0
10	1393	104400	0
10	1439	108000	0
10	1487	111600	0
10	1535	115200	0
10	1583	118800	0
10	1631	122400	0
10	1679	126000	0
10	1727	129600	0
10	1775	133200	0
10	1823	136800	0
10	1871	140400	0
10	1919	144000	0
10	1967	147600	0
10	2011	151200	0.5
10	2059	154800	0
10	2107	158400	0
10	2155	162000	0
10	2203	165600	0
10	2251	169200	0
10	2299	172800	0
10	2347	176400	0
10	2395	180000	0
10	2443	183600	0
10	2491	187200	0
10	2539	190800	0
10	2587	194400	0
10	2635	198000	0
10	2683	201600	0
10	2731	205200	0
10	2777	208800	0
10	2825	212400	0
10	2873	216000	0
10	2921	219600	0
10	2969	223200	0
10	3017	226800	0
10	3065	230400	0
10	3113	234000	0
10	3161	237600	0
10	3209	241200	0
10	3257	244800	0
10	3305	248400	0
10	3353	252000	0
10	3397	255600	0.33333333333333
10	3443	259200	0
10	3491	262800	0
10	3539	266400	0
10	3587	270000	0
10	3635	273600	0
10	3683	277200	0
10	3731	280800	0
10	3775	284400	0
10	3823	288000	0
10	3871	291600	0
10	3919	295200	0
10	3967	298800	0
10	4015	302400	0
10	4063	306000	0
10	4109	309600	0
10	4157	313200	0
10	4205	316800	0
10	4253	320400	0
10	4301	324000	0
10	4349	327600	0
10	4397	331200	0
10	4445	334800	0
10	4493	338400	0
10	4541	342000	0
10	4589	345600	0
10	4637	349200	0
10	4685	352800	0
10	4733	356400	0
10	4781	360000	0
10	4829	363600	0
10	4876	367200	0
10	4925	370800	0
10	4973	374400	0
10	5021	378000	0
10	5069	381600	0
10	5117	385200	0
10	5165	388800	0
10	5211	392400	0
10	5259	396000	0
10	5307	399600	0
10	5355	403200	0
10	5403	406800	0
10	5451	410400	0
10	5499	414000	0
10	5547	417600	0
10	5593	421200	0
10	5641	424800	0
10	5689	428400	0
10	5737	432000	0
10	5785	435600	0
10	5831	439200	0
10	5879	442800	0
10	5927	446400	0
10	5975	450000	0
10	6023	453600	0
10	6071	457200	0
10	6119	460800	0
10	6167	464400	0
10	6215	468000	0
10	6263	471600	0
10	6311	475200	0
10	6359	478800	0
10	6407	482400	0
10	6455	486000	0
10	6503	489600	0
10	6551	493200	0
10	6599	496800	0
10	6647	500400	0
10	6693	504000	0
10	6741	507600	0
10	6789	511200	0
10	6837	514800	0
10	6885	518400	0
10	6933	522000	0
10	6981	525600	0
10	7029	529200	0
10	7077	532800	0
10	7125	536400	0
10	7173	540000	0
10	7217	543600	0
10	7265	547200	0
10	7313	550800	0
10	7361	554400	0
10	7409	558000	0
10	7453	561600	0
10	7501	565200	0
10	7549	568800	0
10	7597	572400	0
10	7645	576000	0
10	7693	579600	0
10	7741	583200	0
10	7789	586800	0
10	7837	590400	0
10	7883	594000	0
10	7931	597600	0
10	7979	601200	0
10	8026	604800	0
10	8031	604800	-nan
11	4	0	0
11	53	3600	0.032000000000001
11	99	7200	0.023999999999887
11	147	10800	0.031999999999698
11	195	14400	0.031999999999243
11	241	18000	0.026666666667249
11	289	21600	0.032000000002881
11	337	25200	0.032000000002881
11	385	28800	0.032000000002881
11	433	32400	0
11	481	36000	0.032000000002881
11	529	39600	0.031999999999243
11	577	43200	0.031999999999243
11	625	46800	0.031999999999243
11	673	50400	0.031999999999243
11	721	54000	0.031999999999243
11	769	57600	0.031999999999243
11	817	61200	0.031999999999243
11	865	64800	0.031999999999243
11	913	68400	0.031999999995605
11	961	72000	0.031999999991967
11	1009	75600	0.031999999991967
11	1057	79200	0.031999999991967
11	1105	82800	0.031999999991967
11	1153	86400	0.031999999991967
11	1201	90000	0.031999999991967
11	1249	93600	0.031999999991967
11	1297	97200	0.031999999991967
11	1345	100800	0.031999999991967
11	1393	104400	0.031999999991967
11	1439	108000	0.031999999991967
11	1487	111600	0.031999999991967
11	1535	115200	0.031999999991967
11	1583	118800	0.031999999991967
11	1631	122400	0.031999999991967
11	1679	126000	0.031999999991967
11	1727	129600	0.031999999991967
11	1775	133200	0
11	1823	136800	0.032000000006519
11	1871	140400	0.032000000006519
11	1919	144000	0.032000000006519
11	1967	147600	0.032000000006519
11	2011	151200	0.01600000000326
11	2059	154800	0.032000000006519
11	2107	158400	0.032000000006519
11	2155	162000	0.032000000006519
11	2203	165600	0.032000000006519
11	2251	169200	0.032000000006519
11	2299	172800	0.032000000006519
11	2347	176400	0
11	2395	180000	0.032000000006519
11	2443	183600	0.032000000006519
11	2491	187200	0.032000000006519
11	2539	190800	0.032000000006519
11	2587	194400	0.032000000006519
11	2635	198000	0.032000000006519
11	2683	201600	0.032000000006519
11	2731	205200	0.032000000006519
11	2777	208800	0.024000000004889
11	2825	212400	0.032000000006519
11	2873	216000	0.032000000006519
11	2921	219600	0.032000000006519
11	2969	223200	0.032000000006519
11	3017	226800	0.032000000006519
11	3065	230400	0.032000000006519
11	3113	234000	0.032000000006519
11	3161	237600	0.032000000006519
11	3209	241200	0.032000000006519
11	3257	244800	0.032000000006519
11	3305	248400	0.032000000006519
11	3353	252000	0.032000000006519
11	3397	255600	0.02133333333768
11	3443	259200	0.026666666672099
11	3491	262800	0.032000000006519
11	3539	266400	0.032000000006519
11	3587	270000	0.032000000006519
11	3635	273600	0.032000000006519
11	3683	277200	0.032000000006519
11	3731	280800	0.032000000006519
11	3775	284400	0
11	3823	288000	0.032000000006519
11	3871	291600	0.032000000006519
11	3919	295200	0.032000000006519
11	3967	298800	0.032000000006519
11	4015	302400	0.032000000006519
11	4063	306000	0.032000000006519
11	4109	309600	0
11	4157	313200	0.032000000006519
11	4205	316800	0.032000000006519
11	4253	320400	0
11	4301	324000	0.032000000006519
11	4349	327600	0.032000000006519
11	4397	331200	0.032000000006519
11	4445	334800	0.032000000006519
11	4493	338400	0.032000000006519
11	4541	342000	0.032000000006519
11	4589	345600	0.032000000006519
11	4637	349200	0.032000000006519
11	4685	352800	0.032000000006519
11	4733	356400	0.032000000006519
11	4781	360000	0.032000000006519
11	4829	363600	0.032000000006519
11	4876	367200	0
11	4925	370800	0.032000000006519
11	4973	374400	0.032000000006519
11	5021	378000	0.032000000006519
11	5069	381600	0.032000000006519
11	5117	385200	0.032000000006519
11	5165	388800	0.032000000006519
11	5211	392400	0.01600000000326
11	5259	396000	0.032000000006519
11	5307	399600	0.032000000006519
11	5355	403200	0.032000000006519
11	5403	406800	0.032000000006519
11	5451	410400	0.032000000006519
11	5499	414000	0.032000000006519
11	5547	417600	0.032000000006519
11	5593	421200	0.01600000000326
11	5641	424800	0.032000000006519
11	5689	428400	0.032000000006519
11	5737	432000	0.032000000006519
11	5785	435600	0.032000000006519
11	5831	439200	0.032000000006519
11	5879	442800	0.032000000006519
11	5927	446400	0.032000000006519
11	5975	450000	0.032000000006519
11	6023	453600	0.032000000006519
11	6071	457200	0.032000000006519
11	6119	460800	0.032000000006519
11	6167	464400	0.032000000006519
11	6215	468000	0.032000000006519
11	6263	471600	0.032000000006519
11	6311	475200	0.032000000006519
11	6359	478800	0.032000000006519
11	6407	482400	0.032000000006519
11	6455	486000	0.032000000006519
11	6503	489600	0.032000000006519
11	6551	493200	0.032000000006519
11	6599	496800	0.032000000006519
11	6647	500400	0.032000000006519
11	6693	504000	0
11	6741	507600	0.032000000006519
11	6789	511200	0.032000000006519
11	6837	514800	0.032000000006519
11	6885	518400	0.032000000006519
11	6933	522000	0.032000000006519
11	6981	525600	0.032000000006519
11	7029	529200	0.032000000006519
11	7077	532800	0.032000000006519
11	7125	536400	0.032000000006519
11	7173	540000	0
11	7217	543600	0
11	7265	547200	0.032000000006519
11	7313	550800	0.032000000006519
11	7361	554400	0.032000000006519
11	7409	558000	0.032000000006519
11	7453	561600	0.032000000006519
11	7501	565200	0.032000000006519
11	7549	568800	0.032000000006519
11	7597	572400	0.032000000006519
11	7645	576000	0.032000000006519
11	7693	579600	0.032000000006519
11	7741	583200	0
11	7789	586800	0.032000000006519
11	7837	590400	0.032000000006519
11	7883	594000	0.032000000006519
11	7931	597600	0.032000000006519
11	7979	601200	0.032000000006519
11	8026	604800	0.032000000006519
12	4	0	0
12	53	3600	0.032000000000001
12	99	7200	0.023999999999887
12	147	10800	0.032000000000153
12	195	14400	0.031999999999243
12	241	18000	0.024000000001251
12	289	21600	0.032000000002881
12	337	25200	0.032000000002881
12	385	28800	0.032000000002881
12	433	32400	0
12	481	36000	0.032000000002881
12	529	39600	0.031999999999243
12	577	43200	0.031999999999243
12	625	46800	0.031999999999243
12	673	50400	0.031999999999243
12	721	54000	0
12	769	57600	0.031999999999243
12	817	61200	0.031999999999243
12	865	64800	0.031999999999243
12	913	68400	0.031999999995605
12	961	72000	0.031999999991967
12	1009	75600	0.031999999991967
12	1057	79200	0.031999999991967
12	1105	82800	0.031999999991967
12	1153	86400	0.031999999991967
12	1201	90000	0.031999999991967
12	1249	93600	0.031999999991967
12	1297	97200	0
12	1345	100800	0.031999999991967
12	1393	104400	0.031999999991967
12	1439	108000	0.031999999991967
12	1487	111600	0.031999999991967
12	1535	115200	0.031999999991967
12	1583	118800	0
12	1631	122400	0.031999999991967
12	1679	126000	0.031999999991967
12	1727	129600	0.031999999991967
12	1775	133200	0
12	1823	136800	0.032000000006519
12	1871	140400	0
12	1919	144000	0.032000000006519
12	1967	147600	0
12	2011	151200	0.01600000000326
12	2059	154800	0
12	2107	158400	0.032000000006519
12	2155	162000	0
12	2203	165600	0.032000000006519
12	2251	169200	0.032000000006519
12	2299	172800	0.032000000006519
12	2347	176400	0
12	2395	180000	0.032000000006519
12	2443	183600	0.032000000006519
12	2491	187200	0.032000000006519
12	2539	190800	0.032000000006519
12	2587	194400	0.032000000006519
12	2635	198000	0
12	2683	201600	0.032000000006519
12	2731	205200	0.032000000006519
12	2777	208800	0.024000000004889
12	2825	212400	0.032000000006519
12	2873	216000	0.032000000006519
12	2921	219600	0.032000000006519
12	2969	223200	0.032000000006519
12	3017	226800	0.032000000006519
12	3065	230400	0.032000000006519
12	3113	234000	0.032000000006519
12	3161	237600	0.032000000006519
12	3209	241200	0.032000000006519
12	3257	244800	0
12	3305	248400	0
12	3353	252000	0.032000000006519
12	3397	255600	0
12	3443	259200	0.032000000006519
12	3491	262800	0.032000000006519
12	3539	266400	0.032000000006519
12	3587	270000	0
12	3635	273600	0
12	3683	277200	0
12	3731	280800	0
12	3775	284400	0
12	3823	288000	0
12	3871	291600	0.032000000006519
12	3919	295200	0
12	3967	298800	0
12	4015	302400	0.032000000006519
12	4063	306000	0.032000000006519
12	4109	309600	0
12	4157	313200	0
12	4205	316800	0
12	4253	320400	0
12	4301	324000	0
12	4349	327600	0.032000000006519
12	4397	331200	0.032000000006519
12	4445	334800	0
12	4493	338400	0.032000000006519
12	4541	342000	0.032000000006519
12	4589	345600	0.032000000006519
12	4637	349200	0.032000000006519
12	4685	352800	0
12	4733	356400	0.032000000006519
12	4781	360000	0.032000000006519
12	4829	363600	0
12	4876	367200	0
12	4925	370800	0
12	4973	374400	0
12	5021	378000	0.032000000006519
12	5069	381600	0
12	5117	385200	0.032000000006519
12	5165	388800	0
12	5211	392400	0
12	5259	396000	0
12	5307	399600	0
12	5355	403200	0
12	5403	406800	0
12	5451	410400	0
12	5499	414000	0
12	5547	417600	0
12	5593	421200	0
12	5641	424800	0
12	5689	428400	0
12	5737	432000	0
12	5785	435600	0
12	5831	439200	0.032000000006519
12	5879	442800	0
12	5927	446400	0.032000000006519
12	5975	450000	0
12	6023	453600	0.032000000006519
12	6071	457200	0
12	6119	460800	0
12	6167	464400	0
12	6215	468000	0
12	6263	471600	0
12	6311	475200	0.032000000006519
12	6359	478800	0.032000000006519
12	6407	482400	0.032000000006519
12	6455	486000	0.032000000006519
12	6503	489600	0
12	6551	493200	0
12	6599	496800	0
12	6647	500400	0
12	6693	504000	0
12	6741	507600	0
12	6789	511200	0
12	6837	514800	0
12	6885	518400	0
12	6933	522000	0.032000000006519
12	6981	525600	0.032000000006519
12	7029	529200	0.032000000006519
12	7077	532800	0
12	7125	536400	0
12	7173	540000	0
12	7217	543600	0
12	7265	547200	0
12	7313	550800	0.032000000006519
12	7361	554400	0
12	7409	558000	0.032000000006519
12	7453	561600	0
12	7501	565200	0
12	7549	568800	0
12	7597	572400	0
12	7645	576000	0
12	7693	579600	0.032000000006519
12	7741	583200	0
12	7789	586800	0
12	7837	590400	0.032000000006519
12	7883	594000	0
12	7931	597600	0.032000000006519
12	7979	601200	0.032000000006519
12	8026	604800	0.032000000006519
13	4	0	0
13	53	3600	6
13	99	7200	4
13	147	10800	4
13	195	14400	2
13	241	18000	6
13	289	21600	4
13	337	25200	6
13	385	28800	6
13	433	32400	0
13	481	36000	2
13	529	39600	2
13	577	43200	4
13	625	46800	6
13	673	50400	4
13	721	54000	2
13	769	57600	2
13	817	61200	4
13	865	64800	4
13	913	68400	4
13	961	72000	6
13	1009	75600	6
13	1057	79200	2
13	1105	82800	2
13	1153	86400	6
13	1201	90000	4
13	1249	93600	4
13	1297	97200	4
13	1345	100800	6
13	1393	104400	2
13	1439	108000	4
13	1487	111600	2
13	1535	115200	4
13	1583	118800	4
13	1631	122400	6
13	1679	126000	4
13	1727	129600	6
13	1775	133200	0
13	1823	136800	4
13	1871	140400	2
13	1919	144000	6
13	1967	147600	2
13	2011	151200	6
13	2059	154800	6
13	2107	158400	6
13	2155	162000	6
13	2203	165600	4
13	2251	169200	6
13	2299	172800	2
13	2347	176400	0
13	2395	180000	4
13	2443	183600	4
13	2491	187200	4
13	2539	190800	2
13	2587	194400	8
13	2635	198000	6
13	2683	201600	4
13	2731	205200	2
13	2777	208800	4
13	2825	212400	2
13	2873	216000	4
13	2921	219600	6
13	2969	223200	6
13	3017	226800	2
13	3065	230400	4
13	3113	234000	4
13	3161	237600	2
13	3209	241200	6
13	3257	244800	2
13	3305	248400	4
13	3353	252000	6
13	3397	255600	8
13	3443	259200	6
13	3491	262800	4
13	3539	266400	8
13	3587	270000	2
13	3635	273600	2
13	3683	277200	4
13	3731	280800	4
13	3775	284400	0
13	3823	288000	2
13	3871	291600	6
13	3919	295200	6
13	3967	298800	2
13	4015	302400	6
13	4063	306000	6
13	4109	309600	0
13	4157	313200	8
13	4205	316800	2
13	4253	320400	0
13	4301	324000	4
13	4349	327600	4
13	4397	331200	6
13	4445	334800	6
13	4493	338400	6
13	4541	342000	6
13	4589	345600	6
13	4637	349200	6
13	4685	352800	2
13	4733	356400	8
13	4781	360000	6
13	4829	363600	2
13	4876	367200	0
13	4925	370800	2
13	4973	374400	4
13	5021	378000	6
13	5069	381600	4
13	5117	385200	8
13	5165	388800	2
13	5211	392400	2
13	5259	396000	2
13	5307	399600	4
13	5355	403200	2
13	5403	406800	2
13	5451	410400	2
13	5499	414000	4
13	5547	417600	2
13	5593	421200	2
13	5641	424800	2
13	5689	428400	4
13	5737	432000	4
13	5785	435600	2
13	5831	439200	6
13	5879	442800	4
13	5927	446400	4
13	5975	450000	2
13	6023	453600	4
13	6071	457200	2
13	6119	460800	4
13	6167	464400	2
13	6215	468000	2
13	6263	471600	2
13	6311	475200	6
13	6359	478800	6
13	6407	482400	4
13	6455	486000	6
13	6503	489600	2
13	6551	493200	6
13	6599	496800	4
13	6647	500400	2
13	6693	504000	0
13	6741	507600	6
13	6789	511200	2
13	6837	514800	4
13	6885	518400	2
13	6933	522000	8
13	6981	525600	4
13	7029	529200	4
13	7077	532800	4
13	7125	536400	4
13	7173	540000	0
13	7217	543600	0
13	7265	547200	4
13	7313	550800	8
13	7361	554400	4
13	7409	558000	4
13	7453	561600	2
13	7501	565200	6
13	7549	568800	6
13	7597	572400	2
13	7645	576000	4
13	7693	579600	6
13	7741	583200	0
13	7789	586800	4
13	7837	590400	6
13	7883	594000	4
13	7931	597600	4
13	7979	601200	6
13	8026	604800	6
13	8031	604800	0
14	4	0	0
14	53	3600	0
14	99	7200	1
14	147	10800	0
14	195	14400	0
14	241	18000	1
14	289	21600	0
14	337	25200	0
14	385	28800	0
14	433	32400	0
14	481	36000	0
14	529	39600	0
14	577	43200	0
14	625	46800	0
14	673	50400	0
14	721	54000	0
14	769	57600	0
14	817	61200	0
14	865	64800	0
14	913	68400	0
14	961	72000	0
14	1009	75600	0
14	1057	79200	0
14	1105	82800	0
14	1153	86400	0
14	1201	90000	0
14	1249	93600	0
14	1297	97200	0
14	1345	100800	0
14	1393	104400	0
14	1439	108000	0
14	1487	111600	0
14	1535	115200	0
14	1583	118800	0
14	1631	122400	0
14	1679	126000	0
14	1727	129600	0
14	1775	133200	0
14	1823	136800	0
14	1871	140400	0
14	1919	144000	0
14	1967	147600	0
14	2011	151200	2
14	2059	154800	0
14	2107	158400	0
14	2155	162000	0
14	2203	165600	0
14	2251	169200	0
14	2299	172800	0
14	2347	176400	0
14	2395	180000	0
14	2443	183600	0
14	2491	187200	0
14	2539	190800	0
14	2587	194400	0
14	2635	198000	0
14	2683	201600	0
14	2731	205200	0
14	2777	208800	1
14	2825	212400	0
14	2873	216000	0
14	2921	219600	0
14	2969	223200	0
14	3017	226800	0
14	3065	230400	0
14	3113	234000	0
14	3161	237600	0
14	3209	241200	0
14	3257	244800	0
14	3305	248400	0
14	3353	252000	0
14	3397	255600	2
14	3443	259200	1
14	3491	262800	0
14	3539	266400	0
14	3587	270000	0
14	3635	273600	0
14	3683	277200	0
14	3731	280800	0
14	3775	284400	0
14	3823	288000	0
14	3871	291600	0
14	3919	295200	0
14	3967	298800	0
14	4015	302400	0
14	4063	306000	0
14	4109	309600	0
14	4157	313200	0
14	4205	316800	0
14	4253	320400	0
14	4301	324000	0
14	4349	327600	0
14	4397	331200	0
14	4445	334800	0
14	4493	338400	0
14	4541	342000	0
14	4589	345600	0
14	4637	349200	0
14	4685	352800	0
14	4733	356400	0
14	4781	360000	0
14	4829	363600	0
14	4876	367200	0
14	4925	370800	0
14	4973	374400	0
14	5021	378000	0
14	5069	381600	0
14	5117	385200	0
14	5165	388800	0
14	5211	392400	1
14	5259	396000	0
14	5307	399600	0
14	5355	403200	0
14	5403	406800	0
14	5451	410400	0
14	5499	414000	0
14	5547	417600	0
14	5593	421200	1
14	5641	424800	0
14	5689	428400	0
14	5737	432000	0
14	5785	435600	0
14	5831	439200	0
14	5879	442800	0
14	5927	446400	0
14	5975	450000	0
14	6023	453600	0
14	6071	457200	0
14	6119	460800	0
14	6167	464400	0
14	6215	468000	0
14	6263	471600	0
14	6311	475200	0
14	6359	478800	0
14	6407	482400	0
14	6455	486000	0
14	6503	489600	0
14	6551	493200	0
14	6599	496800	0
14	6647	500400	0
14	6693	504000	0
14	6741	507600	0
14	6789	511200	0
14	6837	514800	0
14	6885	518400	0
14	6933	522000	0
14	6981	525600	0
14	7029	529200	0
14	7077	532800	0
14	7125	536400	0
14	7173	540000	0
14	7217	543600	0
14	7265	547200	0
14	7313	550800	0
14	7361	554400	0
14	7409	558000	0
14	7453	561600	0
14	7501	565200	0
14	7549	568800	0
14	7597	572400	0
14	7645	576000	0
14	7693	579600	0
14	7741	583200	0
14	7789	586800	0
14	7837	590400	0
14	7883	594000	0
14	7931	597600	0
14	7979	601200	0
14	8026	604800	0
14	8031	604800	0
15	5	0	0
15	54	3600	0
15	100	7200	0
15	148	10800	0
15	196	14400	0
15	242	18000	0
15	290	21600	0
15	338	25200	0
15	386	28800	0
15	434	32400	0
15	482	36000	0
15	530	39600	0
15	578	43200	0
15	626	46800	0
15	674	50400	0
15	722	54000	0
15	770	57600	0
15	818	61200	0
15	866	64800	0
15	914	68400	0
15	962	72000	0
15	1010	75600	0
15	1058	79200	0
15	1106	82800	0
15	1154	86400	0
15	1202	90000	0
15	1250	93600	0
15	1298	97200	0
15	1346	100800	0
15	1394	104400	0
15	1440	108000	0
15	1488	111600	0
15	1536	115200	0
15	1584	118800	0
15	1632	122400	0
15	1680	126000	0
15	1728	129600	0
15	1776	133200	0
15	1824	136800	0
15	1872	140400	0
15	1920	144000	0
15	1968	147600	0
15	2012	151200	0
15	2060	154800	0
15	2108	158400	0
15	2156	162000	0
15	2204	165600	0
15	2252	169200	0
15	2300	172800	0
15	2348	176400	0
15	2396	180000	0
15	2444	183600	0
15	2492	187200	0
15	2540	190800	0
15	2588	194400	0
15	2636	198000	0
15	2684	201600	0
15	2732	205200	0
15	2778	208800	0
15	2826	212400	0
15	2874	216000	0
15	2922	219600	0
15	2970	223200	0
15	3018	226800	0
15	3066	230400	0
15	3114	234000	0
15	3162	237600	0
15	3210	241200	0
15	3258	244800	0
15	3306	248400	0
15	3354	252000	0
15	3398	255600	0
15	3444	259200	0
15	3492	262800	0
15	3540	266400	0
15	3588	270000	0
15	3636	273600	0
15	3684	277200	0
15	3732	280800	0
15	3776	284400	1
15	3824	288000	1
15	3872	291600	1
15	3920	295200	1
15	3968	298800	1
15	4016	302400	1
15	4064	306000	1
15	4110	309600	1
15	4158	313200	1
15	4206	316800	1
15	4254	320400	1
15	4302	324000	1
15	4350	327600	1
15	4398	331200	1
15	4446	334800	1
15	4494	338400	1
15	4542	342000	1
15	4590	345600	1
15	4638	349200	1
15	4686	352800	1
15	4734	356400	1
15	4782	360000	1
15	4830	363600	1
15	4877	367200	1
15	4926	370800	1
15	4974	374400	1
15	5022	378000	1
15	5070	381600	1
15	5118	385200	1
15	5166	388800	1
15	5212	392400	1
15	5260	396000	1
15	5308	399600	1
15	5356	403200	1
15	5404	406800	1
15	5452	410400	1
15	5500	414000	1
15	5548	417600	1
15	5594	421200	1
15	5642	424800	1
15	5690	428400	1
15	5738	432000	1
15	5786	435600	1
15	5832	439200	1
15	5880	442800	1
15	5928	446400	1
15	5976	450000	1
15	6024	453600	1
15	6072	457200	1
15	6120	460800	1
15	6168	464400	1
15	6216	468000	1
15	6264	471600	1
15	6312	475200	1
15	6360	478800	1
15	6408	482400	1
15	6456	486000	1
15	6504	489600	1
15	6552	493200	1
15	6600	496800	1
15	6648	500400	1
15	6694	504000	1
15	6742	507600	1
15	6790	511200	1
15	6838	514800	1
15	6886	518400	1
15	6934	522000	1
15	6982	525600	1
15	7030	529200	1
15	7078	532800	1
15	7126	536400	1
15	7174	540000	1
15	7218	543600	2
15	7266	547200	2
15	7314	550800	2
15	7362	554400	2
15	7410	558000	2
15	7454	561600	3
15	7502	565200	3
15	7550	568800	3
15	7598	572400	3
15	7646	576000	3
15	7694	579600	3
15	7742	583200	3
15	7790	586800	3
15	7838	590400	3
15	7884	594000	3
15	7932	597600	3
15	7980	601200	3
15	8027	604800	3
16	5	0	0
16	54	3600	1
16	100	7200	3
16	148	10800	5
16	196	14400	8
16	242	18000	9
16	290	21600	11
16	338	25200	12
16	386	28800	13
16	434	32400	17
16	482	36000	20
16	530	39600	23
16	578	43200	25
16	626	46800	26
16	674	50400	28
16	722	54000	31
16	770	57600	34
16	818	61200	36
16	866	64800	38
16	914	68400	40
16	962	72000	41
16	1010	75600	42
16	1058	79200	45
16	1106	82800	48
16	1154	86400	49
16	1202	90000	51
16	1250	93600	53
16	1298	97200	55
16	1346	100800	56
16	1394	104400	59
16	1440	108000	61
16	1488	111600	64
16	1536	115200	66
16	1584	118800	68
16	1632	122400	69
16	1680	126000	71
16	1728	129600	72
16	1776	133200	76
16	1824	136800	78
16	1872	140400	81
16	1920	144000	82
16	1968	147600	85
16	2012	151200	87
16	2060	154800	88
16	2108	158400	89
16	2156	162000	90
16	2204	165600	92
16	2252	169200	93
16	2300	172800	96
16	2348	176400	100
16	2396	180000	102
16	2444	183600	104
16	2492	187200	106
16	2540	190800	109
16	2588	194400	109
16	2636	198000	110
16	2684	201600	112
16	2732	205200	115
16	2778	208800	117
16	2826	212400	120
16	2874	216000	122
16	2922	219600	123
16	2970	223200	124
16	3018	226800	127
16	3066	230400	129
16	3114	234000	131
16	3162	237600	134
16	3210	241200	135
16	3258	244800	138
16	3306	248400	140
16	3354	252000	141
16	3398	255600	142
16	3444	259200	143
16	3492	262800	145
16	3540	266400	145
16	3588	270000	148
16	3636	273600	151
16	3684	277200	153
16	3732	280800	155
16	3776	284400	158
16	3824	288000	161
16	3872	291600	162
16	3920	295200	163
16	3968	298800	166
16	4016	302400	167
16	4064	306000	168
16	4110	309600	172
16	4158	313200	172
16	4206	316800	175
16	4254	320400	179
16	4302	324000	181
16	4350	327600	183
16	4398	331200	184
16	4446	334800	185
16	4494	338400	186
16	4542	342000	187
16	4590	345600	188
16	4638	349200	189
16	4686	352800	192
16	4734	356400	192
16	4782	360000	193
16	4830	363600	196
16	4877	367200	200
16	4926	370800	203
16	4974	374400	205
16	5022	378000	206
16	5070	381600	208
16	5118	385200	208
16	5166	388800	211
16	5212	392400	214
16	5260	396000	217
16	5308	399600	219
16	5356	403200	222
16	5404	406800	225
16	5452	410400	228
16	5500	414000	230
16	5548	417600	233
16	5594	421200	236
16	5642	424800	239
16	5690	428400	241
16	5738	432000	243
16	5786	435600	246
16	5832	439200	247
16	5880	442800	249
16	5928	446400	251
16	5976	450000	254
16	6024	453600	256
16	6072	457200	259
16	6120	460800	261
16	6168	464400	264
16	6216	468000	267
16	6264	471600	270
16	6312	475200	271
16	6360	478800	272
16	6408	482400	274
16	6456	486000	275
16	6504	489600	278
16	6552	493200	279
16	6600	496800	281
16	6648	500400	284
16	6694	504000	288
16	6742	507600	289
16	6790	511200	292
16	6838	514800	294
16	6886	518400	297
16	6934	522000	297
16	6982	525600	299
16	7030	529200	301
16	7078	532800	303
16	7126	536400	305
16	7174	540000	309
16	7218	543600	312
16	7266	547200	314
16	7314	550800	314
16	7362	554400	316
16	7410	558000	318
16	7454	561600	320
16	7502	565200	321
16	7550	568800	322
16	7598	572400	325
16	7646	576000	327
16	7694	579600	328
16	7742	583200	332
16	7790	586800	334
16	7838	590400	335
16	7884	594000	337
16	7932	597600	339
16	7980	601200	340
16	8027	604800	341
17	5	0	0
17	54	3600	0
17	100	7200	0
17	148	10800	0
17	196	14400	0
17	242	18000	0
17	290	21600	0
17	338	25200	0
17	386	28800	0
17	434	32400	0
17	482	36000	0
17	530	39600	0
17	578	43200	0
17	626	46800	0
17	674	50400	0
17	722	54000	0
17	770	57600	0
17	818	61200	0
17	866	64800	0
17	914	68400	0
17	962	72000	0
17	1010	75600	0
17	1058	79200	0
17	1106	82800	0
17	1154	86400	0
17	1202	90000	0
17	1250	93600	0
17	1298	97200	0
17	1346	100800	0
17	1394	104400	0
17	1440	108000	0
17	1488	111600	0
17	1536	115200	0
17	1584	118800	0
17	1632	122400	0
17	1680	126000	0
17	1728	129600	0
17	1776	133200	0
17	1824	136800	0
17	1872	140400	0
17	1920	144000	0
17	1968	147600	0
17	2012	151200	0
17	2060	154800	0
17	2108	158400	0
17	2156	162000	0
17	2204	165600	0
17	2252	169200	0
17	2300	172800	0
17	2348	176400	0
17	2396	180000	0
17	2444	183600	0
17	2492	187200	0
17	2540	190800	0
17	2588	194400	0
17	2636	198000	0
17	2684	201600	0
17	2732	205200	0
17	2778	208800	0
17	2826	212400	0
17	2874	216000	0
17	2922	219600	0
17	2970	223200	0
17	3018	226800	0
17	3066	230400	0
17	3114	234000	0
17	3162	237600	0
17	3210	241200	0
17	3258	244800	0
17	3306	248400	0
17	3354	252000	0
17	3398	255600	0
17	3444	259200	0
17	3492	262800	0
17	3540	266400	0
17	3588	270000	0
17	3636	273600	0
17	3684	277200	0
17	3732	280800	0
17	3776	284400	0.25
17	3824	288000	0
17	3872	291600	0
17	3920	295200	0
17	3968	298800	0
17	4016	302400	0
17	4064	306000	0
17	4110	309600	0
17	4158	313200	0
17	4206	316800	0
17	4254	320400	0
17	4302	324000	0
17	4350	327600	0
17	4398	331200	0
17	4446	334800	0
17	4494	338400	0
17	4542	342000	0
17	4590	345600	0
17	4638	349200	0
17	4686	352800	0
17	4734	356400	0
17	4782	360000	0
17	4830	363600	0
17	4877	367200	0
17	4926	370800	0
17	4974	374400	0
17	5022	378000	0
17	5070	381600	0
17	5118	385200	0
17	5166	388800	0
17	5212	392400	0
17	5260	396000	0
17	5308	399600	0
17	5356	403200	0
17	5404	406800	0
17	5452	410400	0
17	5500	414000	0
17	5548	417600	0
17	5594	421200	0
17	5642	424800	0
17	5690	428400	0
17	5738	432000	0
17	5786	435600	0
17	5832	439200	0
17	5880	442800	0
17	5928	446400	0
17	5976	450000	0
17	6024	453600	0
17	6072	457200	0
17	6120	460800	0
17	6168	464400	0
17	6216	468000	0
17	6264	471600	0
17	6312	475200	0
17	6360	478800	0
17	6408	482400	0
17	6456	486000	0
17	6504	489600	0
17	6552	493200	0
17	6600	496800	0
17	6648	500400	0
17	6694	504000	0
17	6742	507600	0
17	6790	511200	0
17	6838	514800	0
17	6886	518400	0
17	6934	522000	0
17	6982	525600	0
17	7030	529200	0
17	7078	532800	0
17	7126	536400	0
17	7174	540000	0
17	7218	543600	0.25
17	7266	547200	0
17	7314	550800	0
17	7362	554400	0
17	7410	558000	0
17	7454	561600	0.33333333333333
17	7502	565200	0
17	7550	568800	0
17	7598	572400	0
17	7646	576000	0
17	7694	579600	0
17	7742	583200	0
17	7790	586800	0
17	7838	590400	0
17	7884	594000	0
17	7932	597600	0
17	7980	601200	0
17	8027	604800	0
17	8031	604800	-nan
18	5	0	0
18	54	3600	0.032
18	100	7200	0.032000000000153
18	148	10800	0.031999999999698
18	196	14400	0.031999999999243
18	242	18000	0.031999999999243
18	290	21600	0.032000000002881
18	338	25200	0.032000000002881
18	386	28800	0.032000000002881
18	434	32400	0.032000000002881
18	482	36000	0.031999999999243
18	530	39600	0.031999999999243
18	578	43200	0.031999999999243
18	626	46800	0.031999999999243
18	674	50400	0.031999999999243
18	722	54000	0.031999999999243
18	770	57600	0.031999999999243
18	818	61200	0.031999999999243
18	866	64800	0.031999999999243
18	914	68400	0.031999999991967
18	962	72000	0.031999999991967
18	1010	75600	0.031999999991967
18	1058	79200	0.031999999991967
18	1106	82800	0.031999999991967
18	1154	86400	0.031999999991967
18	1202	90000	0.031999999991967
18	1250	93600	0.031999999991967
18	1298	97200	0.031999999991967
18	1346	100800	0.031999999991967
18	1394	104400	0.031999999991967
18	1440	108000	0.023999999997613
18	1488	111600	0.031999999991967
18	1536	115200	0.031999999991967
18	1584	118800	0.031999999991967
18	1632	122400	0.031999999991967
18	1680	126000	0.031999999991967
18	1728	129600	0.031999999991967
18	1776	133200	0.031999999999243
18	1824	136800	0.032000000006519
18	1872	140400	0.032000000006519
18	1920	144000	0.032000000006519
18	1968	147600	0.032000000006519
18	2012	151200	0.032000000006519
18	2060	154800	0.032000000006519
18	2108	158400	0.032000000006519
18	2156	162000	0.032000000006519
18	2204	165600	0.032000000006519
18	2252	169200	0.032000000006519
18	2300	172800	0.032000000006519
18	2348	176400	0.032000000006519
18	2396	180000	0.032000000006519
18	2444	183600	0.032000000006519
18	2492	187200	0.032000000006519
18	2540	190800	0.032000000006519
18	2588	194400	0
18	2636	198000	0.032000000006519
18	2684	201600	0.032000000006519
18	2732	205200	0.032000000006519
18	2778	208800	0.032000000006519
18	2826	212400	0.032000000006519
18	2874	216000	0.032000000006519
18	2922	219600	0.032000000006519
18	2970	223200	0.032000000006519
18	3018	226800	0.032000000006519
18	3066	230400	0.032000000006519
18	3114	234000	0.032000000006519
18	3162	237600	0.032000000006519
18	3210	241200	0.032000000006519
18	3258	244800	0.032000000006519
18	3306	248400	0.032000000006519
18	3354	252000	0.032000000006519
18	3398	255600	0.032000000006519
18	3444	259200	0.032000000006519
18	3492	262800	0.032000000006519
18	3540	266400	0
18	3588	270000	0.032000000006519
18	3636	273600	0.032000000006519
18	3684	277200	0.032000000006519
18	3732	280800	0.032000000006519
18	3776	284400	0.024000000004889
18	3824	288000	0.032000000006519
18	3872	291600	0.032000000006519
18	3920	295200	0.032000000006519
18	3968	298800	0.032000000006519
18	4016	302400	0.032000000006519
18	4064	306000	0.032000000006519
18	4110	309600	0.028000000005704
18	4158	313200	0
18	4206	316800	0.032000000006519
18	4254	320400	0.032000000006519
18	4302	324000	0.032000000006519
18	4350	327600	0.032000000006519
18	4398	331200	0.032000000006519
18	4446	334800	0.032000000006519
18	4494	338400	0.032000000006519
18	4542	342000	0.032000000006519
18	4590	345600	0.032000000006519
18	4638	349200	0.032000000006519
18	4686	352800	0.032000000006519
18	4734	356400	0
18	4782	360000	0.032000000006519
18	4830	363600	0.032000000006519
18	4877	367200	0.032000000006519
18	4926	370800	0.032000000006519
18	4974	374400	0.032000000006519
18	5022	378000	0.032000000006519
18	5070	381600	0.032000000006519
18	5118	385200	0
18	5166	388800	0.032000000006519
18	5212	392400	0.032000000006519
18	5260	396000	0.032000000006519
18	5308	399600	0.032000000006519
18	5356	403200	0.032000000006519
18	5404	406800	0.032000000006519
18	5452	410400	0.032000000006519
18	5500	414000	0.032000000006519
18	5548	417600	0.032000000006519
18	5594	421200	0.032000000006519
18	5642	424800	0.032000000006519
18	5690	428400	0.032000000006519
18	5738	432000	0.032000000006519
18	5786	435600	0.032000000006519
18	5832	439200	0.01600000000326
18	5880	442800	0.032000000006519
18	5928	446400	0.032000000006519
18	5976	450000	0.032000000006519
18	6024	453600	0.032000000006519
18	6072	457200	0.032000000006519
18	6120	460800	0.032000000006519
18	6168	464400	0.032000000006519
18	6216	468000	0.032000000006519
18	6264	471600	0.032000000006519
18	6312	475200	0.032000000006519
18	6360	478800	0.032000000006519
18	6408	482400	0.032000000006519
18	6456	486000	0.032000000006519
18	6504	489600	0.032000000006519
18	6552	493200	0.032000000006519
18	6600	496800	0.032000000006519
18	6648	500400	0.032000000006519
18	6694	504000	0.028000000005704
18	6742	507600	0.032000000006519
18	6790	511200	0.032000000006519
18	6838	514800	0.032000000006519
18	6886	518400	0.032000000006519
18	6934	522000	0
18	6982	525600	0.032000000006519
18	7030	529200	0.032000000006519
18	7078	532800	0.032000000006519
18	7126	536400	0.032000000006519
18	7174	540000	0.032000000006519
18	7218	543600	0.024000000004889
18	7266	547200	0.032000000006519
18	7314	550800	0
18	7362	554400	0.032000000006519
18	7410	558000	0.032000000006519
18	7454	561600	0.02133333333768
18	7502	565200	0.032000000006519
18	7550	568800	0.032000000006519
18	7598	572400	0.032000000006519
18	7646	576000	0.032000000006519
18	7694	579600	0.032000000006519
18	7742	583200	0.032000000006519
18	7790	586800	0.032000000006519
18	7838	590400	0.032000000006519
18	7884	594000	0.023999999975786
18	7932	597600	0.032000000006519
18	7980	601200	0.032000000006519
18	8027	604800	0.032000000006519
19	5	0	0
19	54	3600	0.032
19	100	7200	0.032000000000153
19	148	10800	0.031999999999698
19	196	14400	0.031999999999243
19	242	18000	0.031999999999243
19	290	21600	0.032000000002881
19	338	25200	0.032000000002881
19	386	28800	0.032000000002881
19	434	32400	0.032000000002881
19	482	36000	0.031999999999243
19	530	39600	0.031999999999243
19	578	43200	0.031999999999243
19	626	46800	0.031999999999243
19	674	50400	0.031999999999243
19	722	54000	0.031999999999243
19	770	57600	0.031999999999243
19	818	61200	0.031999999999243
19	866	64800	0
19	914	68400	0.031999999991967
19	962	72000	0.031999999991967
19	1010	75600	0
19	1058	79200	0.031999999991967
19	1106	82800	0.031999999991967
19	1154	86400	0.031999999991967
19	1202	90000	0.031999999991967
19	1250	93600	0.031999999991967
19	1298	97200	0.031999999991967
19	1346	100800	0
19	1394	104400	0.031999999991967
19	1440	108000	0.023999999997613
19	1488	111600	0.031999999991967
19	1536	115200	0.031999999991967
19	1584	118800	0.031999999991967
19	1632	122400	0.031999999991967
19	1680	126000	0.031999999991967
19	1728	129600	0.031999999991967
19	1776	133200	0.032000000001669
19	1824	136800	0.032000000006519
19	1872	140400	0.032000000006519
19	1920	144000	0.032000000006519
19	1968	147600	0.032000000006519
19	2012	151200	0.032000000006519
19	2060	154800	0.032000000006519
19	2108	158400	0
19	2156	162000	0
19	2204	165600	0
19	2252	169200	0
19	2300	172800	0.032000000006519
19	2348	176400	0.032000000006519
19	2396	180000	0.032000000006519
19	2444	183600	0.032000000006519
19	2492	187200	0
19	2540	190800	0.032000000006519
19	2588	194400	0
19	2636	198000	0.032000000006519
19	2684	201600	0.032000000006519
19	2732	205200	0.032000000006519
19	2778	208800	0.032000000006519
19	2826	212400	0
19	2874	216000	0
19	2922	219600	0
19	2970	223200	0
19	3018	226800	0
19	3066	230400	0.032000000006519
19	3114	234000	0.032000000006519
19	3162	237600	0.032000000006519
19	3210	241200	0.032000000006519
19	3258	244800	0
19	3306	248400	0
19	3354	252000	0
19	3398	255600	0
19	3444	259200	0
19	3492	262800	0.032000000006519
19	3540	266400	0
19	3588	270000	0
19	3636	273600	0.032000000006519
19	3684	277200	0.032000000006519
19	3732	280800	0
19	3776	284400	0.02133333333768
19	3824	288000	0.032000000006519
19	3872	291600	0.032000000006519
19	3920	295200	0
19	3968	298800	0
19	4016	302400	0
19	4064	306000	0
19	4110	309600	0.01600000000326
19	4158	313200	0
19	4206	316800	0.032000000006519
19	4254	320400	0
19	4302	324000	0
19	4350	327600	0
19	4398	331200	0.032000000006519
19	4446	334800	0
19	4494	338400	0
19	4542	342000	0.032000000006519
19	4590	345600	0
19	4638	349200	0
19	4686	352800	0
19	4734	356400	0
19	4782	360000	0.032000000006519
19	4830	363600	0
19	4877	367200	0
19	4926	370800	0.032000000006519
19	4974	374400	0.032000000006519
19	5022	378000	0
19	5070	381600	0
19	5118	385200	0
19	5166	388800	0.032000000006519
19	5212	392400	0.032000000006519
19	5260	396000	0.032000000006519
19	5308	399600	0
19	5356	403200	0
19	5404	406800	0.032000000006519
19	5452	410400	0.032000000006519
19	5500	414000	0.032000000006519
19	5548	417600	0.032000000006519
19	5594	421200	0.032000000006519
19	5642	424800	0.032000000006519
19	5690	428400	0.032000000006519
19	5738	432000	0
19	5786	435600	0.032000000006519
19	5832	439200	0
19	5880	442800	0.032000000006519
19	5928	446400	0.032000000006519
19	5976	450000	0
19	6024	453600	0
19	6072	457200	0
19	6120	460800	0
19	6168	464400	0
19	6216	468000	0.032000000006519
19	6264	471600	0.032000000006519
19	6312	475200	0
19	6360	478800	0
19	6408	482400	0.032000000006519
19	6456	486000	0
19	6504	489600	0.032000000006519
19	6552	493200	0.032000000006519
19	6600	496800	0
19	6648	500400	0
19	6694	504000	0
19	6742	507600	0
19	6790	511200	0.032000000006519
19	6838	514800	0
19	6886	518400	0
19	6934	522000	0
19	6982	525600	0
19	7030	529200	0
19	7078	532800	0
19	7126	536400	0.032000000006519
19	7174	540000	0.032000000006519
19	7218	543600	0
19	7266	547200	0
19	7314	550800	0
19	7362	554400	0.032000000006519
19	7410	558000	0
19	7454	561600	0
19	7502	565200	0
19	7550	568800	0
19	7598	572400	0
19	7646	576000	0
19	7694	579600	0
19	7742	583200	0
19	7790	586800	0
19	7838	590400	0
19	7884	594000	0
19	7932	597600	0
19	7980	601200	0
19	8027	604800	0
20	5	0	0
20	54	3600	2
20	100	7200	4
20	148	10800	4
20	196	14400	6
20	242	18000	2
20	290	21600	4
20	338	25200	2
20	386	28800	2
20	434	32400	8
20	482	36000	6
20	530	39600	6
20	578	43200	4
20	626	46800	2
20	674	50400	4
20	722	54000	6
20	770	57600	6
20	818	61200	4
20	866	64800	4
20	914	68400	4
20	962	72000	2
20	1010	75600	2
20	1058	79200	6
20	1106	82800	6
20	1154	86400	2
20	1202	90000	4
20	1250	93600	4
20	1298	97200	4
20	1346	100800	2
20	1394	104400	6
20	1440	108000	4
20	1488	111600	6
20	1536	115200	4
20	1584	118800	4
20	1632	122400	2
20	1680	126000	4
20	1728	129600	2
20	1776	133200	8
20	1824	136800	4
20	1872	140400	6
20	1920	144000	2
20	1968	147600	6
20	2012	151200	4
20	2060	154800	2
20	2108	158400	2
20	2156	162000	2
20	2204	165600	4
20	2252	169200	2
20	2300	172800	6
20	2348	176400	8
20	2396	180000	4
20	2444	183600	4
20	2492	187200	4
20	2540	190800	6
20	2588	194400	0
20	2636	198000	2
20	2684	201600	4
20	2732	205200	6
20	2778	208800	4
20	2826	212400	6
20	2874	216000	4
20	2922	219600	2
20	2970	223200	2
20	3018	226800	6
20	3066	230400	4
20	3114	234000	4
20	3162	237600	6
20	3210	241200	2
20	3258	244800	6
20	3306	248400	4
20	3354	252000	2
20	3398	255600	2
20	3444	259200	2
20	3492	262800	4
20	3540	266400	0
20	3588	270000	6
20	3636	273600	6
20	3684	277200	4
20	3732	280800	4
20	3776	284400	10
20	3824	288000	6
20	3872	291600	2
20	3920	295200	2
20	3968	298800	6
20	4016	302400	2
20	4064	306000	2
20	4110	309600	8
20	4158	313200	0
20	4206	316800	6
20	4254	320400	8
20	4302	324000	4
20	4350	327600	4
20	4398	331200	2
20	4446	334800	2
20	4494	338400	2
20	4542	342000	2
20	4590	345600	2
20	4638	349200	2
20	4686	352800	6
20	4734	356400	0
20	4782	360000	2
20	4830	363600	6
20	4877	367200	8
20	4926	370800	6
20	4974	374400	4
20	5022	378000	2
20	5070	381600	4
20	5118	385200	0
20	5166	388800	6
20	5212	392400	6
20	5260	396000	6
20	5308	399600	4
20	5356	403200	6
20	5404	406800	6
20	5452	410400	6
20	5500	414000	4
20	5548	417600	6
20	5594	421200	6
20	5642	424800	6
20	5690	428400	4
20	5738	432000	4
20	5786	435600	6
20	5832	439200	2
20	5880	442800	4
20	5928	446400	4
20	5976	450000	6
20	6024	453600	4
20	6072	457200	6
20	6120	460800	4
20	6168	464400	6
20	6216	468000	6
20	6264	471600	6
20	6312	475200	2
20	6360	478800	2
20	6408	482400	4
20	6456	486000	2
20	6504	489600	6
20	6552	493200	2
20	6600	496800	4
20	6648	500400	6
20	6694	504000	8
20	6742	507600	2
20	6790	511200	6
20	6838	514800	4
20	6886	518400	6
20	6934	522000	0
20	6982	525600	4
20	7030	529200	4
20	7078	532800	4
20	7126	536400	4
20	7174	540000	8
20	7218	543600	10
20	7266	547200	4
20	7314	550800	0
20	7362	554400	4
20	7410	558000	4
20	7454	561600	8
20	7502	565200	2
20	7550	568800	2
20	7598	572400	6
20	7646	576000	4
20	7694	579600	2
20	7742	583200	8
20	7790	586800	4
20	7838	590400	2
20	7884	594000	4
20	7932	597600	4
20	7980	601200	2
20	8027	604800	2
20	8031	604800	0
21	5	0	0
21	54	3600	0
21	100	7200	0
21	148	10800	0
21	196	14400	0
21	242	18000	0
21	290	21600	0
21	338	25200	0
21	386	28800	0
21	434	32400	0
21	482	36000	0
21	530	39600	0
21	578	43200	0
21	626	46800	0
21	674	50400	0
21	722	54000	0
21	770	57600	0
21	818	61200	0
21	866	64800	0
21	914	68400	0
21	962	72000	0
21	1010	75600	0
21	1058	79200	0
21	1106	82800	0
21	1154	86400	0
21	1202	90000	0
21	1250	93600	0
21	1298	97200	0
21	1346	100800	0
21	1394	104400	0
21	1440	108000	1
21	1488	111600	0
21	1536	115200	0
21	1584	118800	0
21	1632	122400	0
21	1680	126000	0
21	1728	129600	0
21	1776	133200	0
21	1824	136800	0
21	1872	140400	0
21	1920	144000	0
21	1968	147600	0
21	2012	151200	0
21	2060	154800	0
21	2108	158400	0
21	2156	162000	0
21	2204	165600	0
21	2252	169200	0
21	2300	172800	0
21	2348	176400	0
21	2396	180000	0
21	2444	183600	0
21	2492	187200	0
21	2540	190800	0
21	2588	194400	0
21	2636	198000	0
21	2684	201600	0
21	2732	205200	0
21	2778	208800	0
21	2826	212400	0
21	2874	216000	0
21	2922	219600	0
21	2970	223200	0
21	3018	226800	0
21	3066	230400	0
21	3114	234000	0
21	3162	237600	0
21	3210	241200	0
21	3258	244800	0
21	3306	248400	0
21	3354	252000	0
21	3398	255600	0
21	3444	259200	0
21	3492	262800	0
21	3540	266400	0
21	3588	270000	0
21	3636	273600	0
21	3684	277200	0
21	3732	280800	0
21	3776	284400	2
21	3824	288000	0
21	3872	291600	0
21	3920	295200	0
21	3968	298800	0
21	4016	302400	0
21	4064	306000	0
21	4110	309600	1
21	4158	313200	0
21	4206	316800	0
21	4254	320400	0
21	4302	324000	0
21	4350	327600	0
21	4398	331200	0
21	4446	334800	0
21	4494	338400	0
21	4542	342000	0
21	4590	345600	0
21	4638	349200	0
21	4686	352800	0
21	4734	356400	0
21	4782	360000	0
21	4830	363600	0
21	4877	367200	0
21	4926	370800	0
21	4974	374400	0
21	5022	378000	0
21	5070	381600	0
21	5118	385200	0
21	5166	388800	0
21	5212	392400	0
21	5260	396000	0
21	5308	399600	0
21	5356	403200	0
21	5404	406800	0
21	5452	410400	0
21	5500	414000	0
21	5548	417600	0
21	5594	421200	0
21	5642	424800	0
21	5690	428400	0
21	5738	432000	0
21	5786	435600	0
21	5832	439200	1
21	5880	442800	0
21	5928	446400	0
21	5976	450000	0
21	6024	453600	0
21	6072	457200	0
21	6120	460800	0
21	6168	464400	0
21	6216	468000	0
21	6264	471600	0
21	6312	475200	0
21	6360	478800	0
21	6408	482400	0
21	6456	486000	0
21	6504	489600	0
21	6552	493200	0
21	6600	496800	0
21	6648	500400	0
21	6694	504000	1
21	6742	507600	0
21	6790	511200	0
21	6838	514800	0
21	6886	518400	0
21	6934	522000	0
21	6982	525600	0
21	7030	529200	0
21	7078	532800	0
21	7126	536400	0
21	7174	540000	0
21	7218	543600	2
21	7266	547200	0
21	7314	550800	0
21	7362	554400	0
21	7410	558000	0
21	7454	561600	2
21	7502	565200	0
21	7550	568800	0
21	7598	572400	0
21	7646	576000	0
21	7694	579600	0
21	7742	583200	0
21	7790	586800	0
21	7838	590400	0
21	7884	594000	1
21	7932	597600	0
21	7980	601200	0
21	8027	604800	0
21	8031	604800	0
22	6	0	0
22	55	3600	0
22	101	7200	0
22	149	10800	0
22	197	14400	0
22	243	18000	0
22	291	21600	0
22	339	25200	0
22	387	28800	0
22	435	32400	0
22	483	36000	0
22	531	39600	0
22	579	43200	0
22	627	46800	0
22	675	50400	0
22	723	54000	0
22	771	57600	0
22	819	61200	0
22	867	64800	0
22	915	68400	0
22	963	72000	0
22	1011	75600	0
22	1059	79200	0
22	1107	82800	0
22	1155	86400	0
22	1203	90000	0
22	1251	93600	0
22	1299	97200	0
22	1347	100800	0
22	1395	104400	0
22	1441	108000	0
22	1489	111600	0
22	1537	115200	0
22	1585	118800	0
22	1633	122400	0
22	1681	126000	0
22	1729	129600	0
22	1777	133200	0
22	1825	136800	0
22	1873	140400	0
22	1921	144000	0
22	1969	147600	0
22	2013	151200	0
22	2061	154800	0
22	2109	158400	0
22	2157	162000	0
22	2205	165600	0
22	2253	169200	0
22	2301	172800	0
22	2349	176400	0
22	2397	180000	0
22	2445	183600	0
22	2493	187200	0
22	2541	190800	0
22	2589	194400	0
22	2637	198000	0
22	2685	201600	0
22	2733	205200	0
22	2779	208800	0
22	2827	212400	0
22	2875	216000	0
22	2923	219600	0
22	2971	223200	0
22	3019	226800	0
22	3067	230400	0
22	3115	234000	0
22	3163	237600	0
22	3211	241200	0
22	3259	244800	0
22	3307	248400	0
22	3355	252000	0
22	3399	255600	0
22	3445	259200	0
22	3493	262800	0
22	3541	266400	0
22	3589	270000	0
22	3637	273600	0
22	3685	277200	0
22	3733	280800	0
22	3777	284400	0
22	3825	288000	0
22	3873	291600	0
22	3921	295200	0
22	3969	298800	0
22	4017	302400	0
22	4065	306000	0
22	4111	309600	0
22	4159	313200	0
22	4207	316800	0
22	4255	320400	0
22	4303	324000	0
22	4351	327600	0
22	4399	331200	0
22	4447	334800	0
22	4495	338400	0
22	4543	342000	0
22	4591	345600	0
22	4639	349200	0
22	4687	352800	0
22	4735	356400	0
22	4783	360000	0
22	4831	363600	0
22	4878	367200	0
22	4927	370800	0
22	4975	374400	0
22	5023	378000	0
22	5071	381600	0
22	5119	385200	0
22	5167	388800	0
22	5213	392400	0
22	5261	396000	0
22	5309	399600	0
22	5357	403200	0
22	5405	406800	0
22	5453	410400	0
22	5501	414000	0
22	5549	417600	0
22	5595	421200	0
22	5643	424800	0
22	5691	428400	0
22	5739	432000	0
22	5787	435600	0
22	5833	439200	0
22	5881	442800	0
22	5929	446400	0
22	5977	450000	0
22	6025	453600	0
22	6073	457200	0
22	6121	460800	0
22	6169	464400	0
22	6217	468000	0
22	6265	471600	0
22	6313	475200	0
22	6361	478800	0
22	6409	482400	0
22	6457	486000	0
22	6505	489600	0
22	6553	493200	0
22	6601	496800	0
22	6649	500400	0
22	6695	504000	0
22	6743	507600	0
22	6791	511200	0
22	6839	514800	0
22	6887	518400	0
22	6935	522000	0
22	6983	525600	0
22	7031	529200	0
22	7079	532800	0
22	7127	536400	0
22	7175	540000	0
22	7219	543600	0
22	7267	547200	0
22	7315	550800	0
22	7363	554400	0
22	7411	558000	0
22	7455	561600	0
22	7503	565200	0
22	7551	568800	0
22	7599	572400	0
22	7647	576000	0
22	7695	579600	0
22	7743	583200	0
22	7791	586800	0
22	7839	590400	0
22	7885	594000	0
22	7933	597600	0
22	7981	601200	0
22	8028	604800	0
23	6	0	0
23	55	3600	1
23	101	7200	2
23	149	10800	2
23	197	14400	2
23	243	18000	3
23	291	21600	3
23	339	25200	4
23	387	28800	5
23	435	32400	5
23	483	36000	6
23	531	39600	7
23	579	43200	8
23	627	46800	9
23	675	50400	9
23	723	54000	9
23	771	57600	9
23	819	61200	9
23	867	64800	10
23	915	68400	11
23	963	72000	13
23	1011	75600	13
23	1059	79200	14
23	1107	82800	15
23	1155	86400	16
23	1203	90000	18
23	1251	93600	19
23	1299	97200	21
23	1347	100800	21
23	1395	104400	21
23	1441	108000	22
23	1489	111600	22
23	1537	115200	24
23	1585	118800	25
23	1633	122400	26
23	1681	126000	28
23	1729	129600	30
23	1777	133200	30
23	1825	136800	31
23	1873	140400	32
23	1921	144000	32
23	1969	147600	33
23	2013	151200	34
23	2061	154800	35
23	2109	158400	37
23	2157	162000	39
[...]
43	7698	579600	0
43	7746	583200	0
43	7794	586800	0
43	7842	590400	0
43	7888	594000	0
43	7936	597600	0
43	7984	601200	0
43	8031	604800	0
44	9	0	0
44	58	3600	1
44	104	7200	2
44	152	10800	3
44	200	14400	3
44	246	18000	4
44	294	21600	6
44	342	25200	7
44	390	28800	8
44	438	32400	10
44	486	36000	12
44	534	39600	14
44	582	43200	15
44	630	46800	15
44	678	50400	15
44	726	54000	15
44	774	57600	16
44	822	61200	16
44	870	64800	17
44	918	68400	18
44	966	72000	19
44	1014	75600	20
44	1062	79200	21
44	1110	82800	22
44	1158	86400	23
44	1206	90000	23
44	1254	93600	24
44	1302	97200	26
44	1350	100800	27
44	1398	104400	29
44	1444	108000	29
44	1492	111600	30
44	1540	115200	31
44	1588	118800	32
44	1636	122400	32
44	1684	126000	33
44	1732	129600	34
44	1780	133200	35
44	1828	136800	36
44	1876	140400	38
44	1924	144000	39
44	1972	147600	39
44	2016	151200	41
44	2064	154800	42
44	2112	158400	42
44	2160	162000	42
44	2208	165600	42
44	2256	169200	42
44	2304	172800	43
44	2352	176400	43
44	2400	180000	45
44	2448	183600	47
44	2496	187200	49
44	2544	190800	51
44	2592	194400	51
44	2640	198000	51
44	2688	201600	52
44	2736	205200	55
44	2782	208800	55
44	2830	212400	56
44	2878	216000	57
44	2926	219600	58
44	2974	223200	58
44	3022	226800	59
44	3070	230400	60
44	3118	234000	62
44	3166	237600	65
44	3214	241200	66
44	3262	244800	69
44	3310	248400	69
44	3358	252000	69
44	3402	255600	70
44	3448	259200	70
44	3496	262800	70
44	3544	266400	70
44	3592	270000	71
44	3640	273600	72
44	3688	277200	74
44	3736	280800	74
44	3780	284400	77
44	3828	288000	79
44	3876	291600	80
44	3924	295200	80
44	3972	298800	82
44	4020	302400	82
44	4068	306000	83
44	4114	309600	86
44	4162	313200	86
44	4210	316800	88
44	4258	320400	89
44	4306	324000	89
44	4354	327600	91
44	4402	331200	91
44	4450	334800	91
44	4498	338400	92
44	4546	342000	93
44	4594	345600	94
44	4642	349200	95
44	4690	352800	96
44	4738	356400	96
44	4786	360000	97
44	4834	363600	99
44	4881	367200	103
44	4930	370800	105
44	4978	374400	107
44	5026	378000	107
44	5074	381600	107
44	5122	385200	107
44	5170	388800	109
44	5216	392400	111
44	5264	396000	113
44	5312	399600	114
44	5360	403200	116
44	5408	406800	117
44	5456	410400	119
44	5504	414000	119
44	5552	417600	119
44	5598	421200	121
44	5646	424800	123
44	5694	428400	124
44	5742	432000	125
44	5790	435600	125
44	5836	439200	126
44	5884	442800	126
44	5932	446400	126
44	5980	450000	127
44	6028	453600	128
44	6076	457200	130
44	6124	460800	132
44	6172	464400	134
44	6220	468000	135
44	6268	471600	135
44	6316	475200	135
44	6364	478800	136
44	6412	482400	137
44	6460	486000	138
44	6508	489600	139
44	6556	493200	139
44	6604	496800	139
44	6652	500400	139
44	6698	504000	141
44	6746	507600	142
44	6794	511200	142
44	6842	514800	143
44	6890	518400	145
44	6938	522000	145
44	6986	525600	146
44	7034	529200	148
44	7082	532800	149
44	7130	536400	149
44	7178	540000	151
44	7222	543600	152
44	7270	547200	153
44	7318	550800	153
44	7366	554400	153
44	7414	558000	155
44	7458	561600	156
44	7506	565200	156
44	7554	568800	156
44	7602	572400	158
44	7650	576000	159
44	7698	579600	159
44	7746	583200	162
44	7794	586800	164
44	7842	590400	165
44	7888	594000	167
44	7936	597600	168
44	7984	601200	169
44	8031	604800	170
45	9	0	0
45	58	3600	0
45	104	7200	0
45	152	10800	0
45	200	14400	0
45	246	18000	0
45	294	21600	0
45	342	25200	0
45	390	28800	0
45	438	32400	0
45	486	36000	0
45	534	39600	0
45	582	43200	0
45	630	46800	0
45	678	50400	0
45	726	54000	0
45	774	57600	0
45	822	61200	0
45	870	64800	0
45	918	68400	0
45	966	72000	0
45	1014	75600	0
45	1062	79200	0
45	1110	82800	0
45	1158	86400	0
45	1206	90000	0
45	1254	93600	0
45	1302	97200	0
45	1350	100800	0
45	1398	104400	0
45	1444	108000	0
45	1492	111600	0
45	1540	115200	0
45	1588	118800	0
45	1636	122400	0
45	1684	126000	0
45	1732	129600	0
45	1780	133200	0
45	1828	136800	0
45	1876	140400	0
45	1924	144000	0
45	1972	147600	0
45	2016	151200	0
45	2064	154800	0
45	2112	158400	0
45	2160	162000	0
45	2208	165600	0
45	2256	169200	0
45	2304	172800	0
45	2352	176400	0
45	2400	180000	0
45	2448	183600	0
45	2496	187200	0
45	2544	190800	0
45	2592	194400	0
45	2640	198000	0
45	2688	201600	0
45	2736	205200	0
45	2782	208800	0
45	2830	212400	0
45	2878	216000	0
45	2926	219600	0
45	2974	223200	0
45	3022	226800	0
45	3070	230400	0
45	3118	234000	0
45	3166	237600	0
45	3214	241200	0
45	3262	244800	0
45	3310	248400	0
45	3358	252000	0
45	3402	255600	0
45	3448	259200	0
45	3496	262800	0
45	3544	266400	0
45	3592	270000	0
45	3640	273600	0
45	3688	277200	0
45	3736	280800	0
45	3780	284400	0
45	3828	288000	0
45	3876	291600	0
45	3924	295200	0
45	3972	298800	0
45	4020	302400	0
45	4068	306000	0
45	4114	309600	0
45	4162	313200	0
45	4210	316800	0
45	4258	320400	0
45	4306	324000	0
45	4354	327600	0
45	4402	331200	0
45	4450	334800	0
45	4498	338400	0
45	4546	342000	0
45	4594	345600	0
45	4642	349200	0
45	4690	352800	0
45	4738	356400	0
45	4786	360000	0
45	4834	363600	0
45	4881	367200	0
45	4930	370800	0
45	4978	374400	0
45	5026	378000	0
45	5074	381600	0
45	5122	385200	0
45	5170	388800	0
45	5216	392400	0
45	5264	396000	0
45	5312	399600	0
45	5360	403200	0
45	5408	406800	0
45	5456	410400	0
45	5504	414000	0
45	5552	417600	0
45	5598	421200	0
45	5646	424800	0
45	5694	428400	0
45	5742	432000	0
45	5790	435600	0
45	5836	439200	0
45	5884	442800	0
45	5932	446400	0
45	5980	450000	0
45	6028	453600	0
45	6076	457200	0
45	6124	460800	0
45	6172	464400	0
45	6220	468000	0
45	6268	471600	0
45	6316	475200	0
45	6364	478800	0
45	6412	482400	0
45	6460	486000	0
45	6508	489600	0
45	6556	493200	0
45	6604	496800	0
45	6652	500400	0
45	6698	504000	0
45	6746	507600	0
45	6794	511200	0
45	6842	514800	0
45	6890	518400	0
45	6938	522000	0
45	6986	525600	0
45	7034	529200	0
45	7082	532800	0
45	7130	536400	0
45	7178	540000	0
45	7222	543600	0
45	7270	547200	0
45	7318	550800	0
45	7366	554400	0
45	7414	558000	0
45	7458	561600	0
45	7506	565200	0
45	7554	568800	0
45	7602	572400	0
45	7650	576000	0
45	7698	579600	0
45	7746	583200	0
45	7794	586800	0
45	7842	590400	0
45	7888	594000	0
45	7936	597600	0
45	7984	601200	0
45	8031	604800	0
45	8031	604800	-nan
46	9	0	0
46	58	3600	0.048
46	104	7200	0.047999999999774
46	152	10800	0.048000000000684
46	200	14400	0
46	246	18000	0.047999999998865
46	294	21600	0.047999999998865
46	342	25200	0.047999999998865
46	390	28800	0.047999999998865
46	438	32400	0.047999999998865
46	486	36000	0.048000000002503
46	534	39600	0.048000000002503
46	582	43200	0.048000000002503
46	630	46800	0
46	678	50400	0
46	726	54000	0
46	774	57600	0.048000000002503
46	822	61200	0
46	870	64800	0.047999999995227
46	918	68400	0.047999999995227
46	966	72000	0.047999999995227
46	1014	75600	0.047999999995227
46	1062	79200	0.047999999995227
46	1110	82800	0.047999999995227
46	1158	86400	0.047999999995227
46	1206	90000	0
46	1254	93600	0.047999999995227
46	1302	97200	0.047999999995227
46	1350	100800	0.047999999995227
46	1398	104400	0.047999999995227
46	1444	108000	0
46	1492	111600	0.047999999995227
46	1540	115200	0.047999999995227
46	1588	118800	0.047999999995227
46	1636	122400	0
46	1684	126000	0.047999999995227
46	1732	129600	0.047999999995227
46	1780	133200	0.048000000009779
46	1828	136800	0.048000000009779
46	1876	140400	0.048000000009779
46	1924	144000	0.048000000009779
46	1972	147600	0
46	2016	151200	0.048000000009779
46	2064	154800	0.048000000009779
46	2112	158400	0
46	2160	162000	0
46	2208	165600	0
46	2256	169200	0
46	2304	172800	0.048000000009779
46	2352	176400	0
46	2400	180000	0.048000000009779
46	2448	183600	0.048000000009779
46	2496	187200	0.048000000009779
46	2544	190800	0.048000000009779
46	2592	194400	0
46	2640	198000	0
46	2688	201600	0.048000000009779
46	2736	205200	0.048000000009779
46	2782	208800	0
46	2830	212400	0.048000000009779
46	2878	216000	0.048000000009779
46	2926	219600	0.048000000009779
46	2974	223200	0
46	3022	226800	0.048000000009779
46	3070	230400	0.048000000009779
46	3118	234000	0.048000000009779
46	3166	237600	0.048000000009779
46	3214	241200	0.047999999980675
46	3262	244800	0.047999999980675
46	3310	248400	0
46	3358	252000	0
46	3402	255600	0.047999999980675
46	3448	259200	0
46	3496	262800	0
46	3544	266400	0
46	3592	270000	0.048000000009779
46	3640	273600	0.048000000009779
46	3688	277200	0.048000000009779
46	3736	280800	0
46	3780	284400	0.037333333340939
46	3828	288000	0.048000000009779
46	3876	291600	0.048000000009779
46	3924	295200	0
46	3972	298800	0.048000000009779
46	4020	302400	0
46	4068	306000	0.048000000009779
46	4114	309600	0.042666666675359
46	4162	313200	0
46	4210	316800	0.048000000009779
46	4258	320400	0.048000000009779
46	4306	324000	0
46	4354	327600	0.048000000009779
46	4402	331200	0
46	4450	334800	0
46	4498	338400	0.048000000009779
46	4546	342000	0.048000000009779
46	4594	345600	0.048000000009779
46	4642	349200	0.048000000009779
46	4690	352800	0.048000000009779
46	4738	356400	0
46	4786	360000	0.048000000009779
46	4834	363600	0.048000000009779
46	4881	367200	0.048000000009779
46	4930	370800	0.048000000009779
46	4978	374400	0.048000000009779
46	5026	378000	0
46	5074	381600	0
46	5122	385200	0
46	5170	388800	0.048000000009779
46	5216	392400	0.048000000009779
46	5264	396000	0.048000000009779
46	5312	399600	0.048000000009779
46	5360	403200	0.048000000009779
46	5408	406800	0.048000000009779
46	5456	410400	0.048000000009779
46	5504	414000	0
46	5552	417600	0
46	5598	421200	0.048000000009779
46	5646	424800	0.048000000009779
46	5694	428400	0.048000000009779
46	5742	432000	0.048000000009779
46	5790	435600	0
46	5836	439200	0.032000000006519
46	5884	442800	0
46	5932	446400	0
46	5980	450000	0.048000000009779
46	6028	453600	0.048000000009779
46	6076	457200	0.048000000009779
46	6124	460800	0.048000000009779
46	6172	464400	0.048000000009779
46	6220	468000	0.048000000009779
46	6268	471600	0
46	6316	475200	0
46	6364	478800	0.048000000009779
46	6412	482400	0.048000000009779
46	6460	486000	0.048000000009779
46	6508	489600	0.048000000009779
46	6556	493200	0
46	6604	496800	0
46	6652	500400	0
46	6698	504000	0.048000000009779
46	6746	507600	0.048000000009779
46	6794	511200	0
46	6842	514800	0.048000000009779
46	6890	518400	0.048000000009779
46	6938	522000	0
46	6986	525600	0.048000000009779
46	7034	529200	0.047999999951571
46	7082	532800	0.047999999951571
46	7130	536400	0
46	7178	540000	0.047999999951571
46	7222	543600	0.047999999951571
46	7270	547200	0.047999999951571
46	7318	550800	0
46	7366	554400	0
46	7414	558000	0.047999999951571
46	7458	561600	0.015999999945052
46	7506	565200	0
46	7554	568800	0
46	7602	572400	0.047999999951571
46	7650	576000	0.047999999951571
46	7698	579600	0
46	7746	583200	0.047999999951571
46	7794	586800	0.047999999951571
46	7842	590400	0.047999999951571
46	7888	594000	0.039999999979045
46	7936	597600	0.047999999951571
46	7984	601200	0.047999999951571
46	8031	604800	0.047999999951571
47	9	0	0
47	58	3600	0.048
47	104	7200	0.047999999999774
47	152	10800	0.048000000000684
47	200	14400	0
47	246	18000	0.047999999998865
47	294	21600	0.047999999998865
47	342	25200	0.047999999998865
47	390	28800	0.047999999998865
47	438	32400	0.047999999998865
47	486	36000	0.048000000002503
47	534	39600	0.048000000002503
47	582	43200	0.048000000002503
47	630	46800	0
47	678	50400	0
47	726	54000	0
47	774	57600	0.048000000002503
47	822	61200	0
47	870	64800	0
47	918	68400	0.047999999995227
47	966	72000	0.047999999995227
47	1014	75600	0
47	1062	79200	0.047999999995227
47	1110	82800	0.047999999995227
47	1158	86400	0.047999999995227
47	1206	90000	0
47	1254	93600	0.047999999995227
47	1302	97200	0.047999999995227
47	1350	100800	0
47	1398	104400	0.047999999995227
47	1444	108000	0
47	1492	111600	0
47	1540	115200	0.047999999995227
47	1588	118800	0.047999999995227
47	1636	122400	0
47	1684	126000	0.047999999995227
47	1732	129600	0.047999999995227
47	1780	133200	0.048000000009779
47	1828	136800	0
47	1876	140400	0.048000000009779
47	1924	144000	0.048000000009779
47	1972	147600	0
47	2016	151200	0.048000000009779
47	2064	154800	0.048000000009779
47	2112	158400	0
47	2160	162000	0
47	2208	165600	0
47	2256	169200	0
47	2304	172800	0.048000000009779
47	2352	176400	0
47	2400	180000	0.048000000009779
47	2448	183600	0.048000000009779
47	2496	187200	0
47	2544	190800	0.048000000009779
47	2592	194400	0
47	2640	198000	0
47	2688	201600	0.048000000009779
47	2736	205200	0.048000000009779
47	2782	208800	0
47	2830	212400	0
47	2878	216000	0
47	2926	219600	0
47	2974	223200	0
47	3022	226800	0
47	3070	230400	0
47	3118	234000	0.048000000009779
47	3166	237600	0.048000000009779
47	3214	241200	0.047999999980675
47	3262	244800	0
47	3310	248400	0
47	3358	252000	0
47	3402	255600	0
47	3448	259200	0
47	3496	262800	0
47	3544	266400	0
47	3592	270000	0
47	3640	273600	0
47	3688	277200	0.048000000009779
47	3736	280800	0
47	3780	284400	0.032000000006519
47	3828	288000	0.048000000009779
47	3876	291600	0.048000000009779
47	3924	295200	0
47	3972	298800	0
47	4020	302400	0
47	4068	306000	0
47	4114	309600	0.032000000006519
47	4162	313200	0
47	4210	316800	0.048000000009779
47	4258	320400	0
47	4306	324000	0
47	4354	327600	0
47	4402	331200	0
47	4450	334800	0
47	4498	338400	0
47	4546	342000	0.048000000009779
47	4594	345600	0
47	4642	349200	0
47	4690	352800	0
47	4738	356400	0
47	4786	360000	0.048000000009779
47	4834	363600	0
47	4881	367200	0
47	4930	370800	0
47	4978	374400	0.048000000009779
47	5026	378000	0
47	5074	381600	0
47	5122	385200	0
47	5170	388800	0.048000000009779
47	5216	392400	0.048000000009779
47	5264	396000	0.048000000009779
47	5312	399600	0
47	5360	403200	0
47	5408	406800	0.048000000009779
47	5456	410400	0
47	5504	414000	0
47	5552	417600	0
47	5598	421200	0.048000000009779
47	5646	424800	0.048000000009779
47	5694	428400	0
47	5742	432000	0
47	5790	435600	0
47	5836	439200	0
47	5884	442800	0
47	5932	446400	0
47	5980	450000	0
47	6028	453600	0
47	6076	457200	0
47	6124	460800	0
47	6172	464400	0
47	6220	468000	0
47	6268	471600	0
47	6316	475200	0
47	6364	478800	0
47	6412	482400	0
47	6460	486000	0
47	6508	489600	0
47	6556	493200	0
47	6604	496800	0
47	6652	500400	0
47	6698	504000	0
47	6746	507600	0
47	6794	511200	0
47	6842	514800	0
47	6890	518400	0
47	6938	522000	0
47	6986	525600	0
47	7034	529200	0
47	7082	532800	0
47	7130	536400	0
47	7178	540000	0
47	7222	543600	0
47	7270	547200	0
47	7318	550800	0
47	7366	554400	0
47	7414	558000	0
47	7458	561600	0
47	7506	565200	0
47	7554	568800	0
47	7602	572400	0
47	7650	576000	0
47	7698	579600	0
47	7746	583200	0
47	7794	586800	0
47	7842	590400	0
47	7888	594000	0
47	7936	597600	0
47	7984	601200	0
47	8031	604800	0
48	9	0	0
48	58	3600	2
48	104	7200	2
48	152	10800	2
48	200	14400	0
48	246	18000	2
48	294	21600	4
48	342	25200	2
48	390	28800	2
48	438	32400	4
48	486	36000	4
48	534	39600	4
48	582	43200	2
48	630	46800	0
48	678	50400	0
48	726	54000	0
48	774	57600	2
48	822	61200	0
48	870	64800	2
48	918	68400	2
48	966	72000	2
48	1014	75600	2
48	1062	79200	2
48	1110	82800	2
48	1158	86400	2
48	1206	90000	0
48	1254	93600	2
48	1302	97200	4
48	1350	100800	2
48	1398	104400	4
48	1444	108000	0
48	1492	111600	2
48	1540	115200	2
48	1588	118800	2
48	1636	122400	0
48	1684	126000	2
48	1732	129600	2
48	1780	133200	2
48	1828	136800	2
48	1876	140400	4
48	1924	144000	2
48	1972	147600	0
48	2016	151200	4
48	2064	154800	2
48	2112	158400	0
48	2160	162000	0
48	2208	165600	0
48	2256	169200	0
48	2304	172800	2
48	2352	176400	0
48	2400	180000	4
48	2448	183600	4
48	2496	187200	4
48	2544	190800	4
48	2592	194400	0
48	2640	198000	0
48	2688	201600	2
48	2736	205200	6
48	2782	208800	0
48	2830	212400	2
48	2878	216000	2
48	2926	219600	2
48	2974	223200	0
48	3022	226800	2
48	3070	230400	2
48	3118	234000	4
48	3166	237600	6
48	3214	241200	2
48	3262	244800	6
48	3310	248400	0
48	3358	252000	0
48	3402	255600	2
48	3448	259200	0
48	3496	262800	0
48	3544	266400	0
48	3592	270000	2
48	3640	273600	2
48	3688	277200	4
48	3736	280800	0
48	3780	284400	6
48	3828	288000	4
48	3876	291600	2
48	3924	295200	0
48	3972	298800	4
48	4020	302400	0
48	4068	306000	2
48	4114	309600	6
48	4162	313200	0
48	4210	316800	4
48	4258	320400	2
48	4306	324000	0
48	4354	327600	4
48	4402	331200	0
48	4450	334800	0
48	4498	338400	2
48	4546	342000	2
48	4594	345600	2
48	4642	349200	2
48	4690	352800	2
48	4738	356400	0
48	4786	360000	2
48	4834	363600	4
48	4881	367200	8
48	4930	370800	4
48	4978	374400	4
48	5026	378000	0
48	5074	381600	0
48	5122	385200	0
48	5170	388800	4
48	5216	392400	4
48	5264	396000	4
48	5312	399600	2
48	5360	403200	4
48	5408	406800	2
48	5456	410400	4
48	5504	414000	0
48	5552	417600	0
48	5598	421200	4
48	5646	424800	4
48	5694	428400	2
48	5742	432000	2
48	5790	435600	0
48	5836	439200	2
48	5884	442800	0
48	5932	446400	0
48	5980	450000	2
48	6028	453600	2
48	6076	457200	4
48	6124	460800	4
48	6172	464400	4
48	6220	468000	2
48	6268	471600	0
48	6316	475200	0
48	6364	478800	2
48	6412	482400	2
48	6460	486000	2
48	6508	489600	2
48	6556	493200	0
48	6604	496800	0
48	6652	500400	0
48	6698	504000	4
48	6746	507600	2
48	6794	511200	0
48	6842	514800	2
48	6890	518400	4
48	6938	522000	0
48	6986	525600	2
48	7034	529200	4
48	7082	532800	2
48	7130	536400	0
48	7178	540000	4
48	7222	543600	2
48	7270	547200	2
48	7318	550800	0
48	7366	554400	0
48	7414	558000	4
48	7458	561600	2
48	7506	565200	0
48	7554	568800	0
48	7602	572400	4
48	7650	576000	2
48	7698	579600	0
48	7746	583200	6
48	7794	586800	4
48	7842	590400	2
48	7888	594000	4
48	7936	597600	2
48	7984	601200	2
48	8031	604800	2
48	8031	604800	0
49	9	0	0
49	58	3600	0
49	104	7200	0
49	152	10800	0
49	200	14400	0
49	246	18000	0
49	294	21600	0
49	342	25200	0
49	390	28800	0
49	438	32400	0
49	486	36000	0
49	534	39600	0
49	582	43200	0
49	630	46800	0
49	678	50400	0
49	726	54000	0
49	774	57600	0
49	822	61200	0
49	870	64800	0
49	918	68400	0
49	966	72000	0
49	1014	75600	0
49	1062	79200	0
49	1110	82800	0
49	1158	86400	0
49	1206	90000	0
49	1254	93600	0
49	1302	97200	0
49	1350	100800	0
49	1398	104400	0
49	1444	108000	0
49	1492	111600	0
49	1540	115200	0
49	1588	118800	0
49	1636	122400	0
49	1684	126000	0
49	1732	129600	0
49	1780	133200	0
49	1828	136800	0
49	1876	140400	0
49	1924	144000	0
49	1972	147600	0
49	2016	151200	0
49	2064	154800	0
49	2112	158400	0
49	2160	162000	0
49	2208	165600	0
49	2256	169200	0
49	2304	172800	0
49	2352	176400	0
49	2400	180000	0
49	2448	183600	0
49	2496	187200	0
49	2544	190800	0
49	2592	194400	0
49	2640	198000	0
49	2688	201600	0
49	2736	205200	0
49	2782	208800	0
49	2830	212400	0
49	2878	216000	0
49	2926	219600	0
49	2974	223200	0
49	3022	226800	0
49	3070	230400	0
49	3118	234000	0
49	3166	237600	0
49	3214	241200	0
49	3262	244800	0
49	3310	248400	0
49	3358	252000	0
49	3402	255600	0
49	3448	259200	0
49	3496	262800	0
49	3544	266400	0
49	3592	270000	0
49	3640	273600	0
49	3688	277200	0
49	3736	280800	0
49	3780	284400	1
49	3828	288000	0
49	3876	291600	0
49	3924	295200	0
49	3972	298800	0
49	4020	302400	0
49	4068	306000	0
49	4114	309600	0
49	4162	313200	0
49	4210	316800	0
49	4258	320400	0
49	4306	324000	0
49	4354	327600	0
49	4402	331200	0
49	4450	334800	0
49	4498	338400	0
49	4546	342000	0
49	4594	345600	0
49	4642	349200	0
49	4690	352800	0
49	4738	356400	0
49	4786	360000	0
49	4834	363600	0
49	4881	367200	0
49	4930	370800	0
49	4978	374400	0
49	5026	378000	0
49	5074	381600	0
49	5122	385200	0
49	5170	388800	0
49	5216	392400	0
49	5264	396000	0
49	5312	399600	0
49	5360	403200	0
49	5408	406800	0
49	5456	410400	0
49	5504	414000	0
49	5552	417600	0
49	5598	421200	0
49	5646	424800	0
49	5694	428400	0
49	5742	432000	0
49	5790	435600	0
49	5836	439200	0
49	5884	442800	0
49	5932	446400	0
49	5980	450000	0
49	6028	453600	0
49	6076	457200	0
49	6124	460800	0
49	6172	464400	0
49	6220	468000	0
49	6268	471600	0
49	6316	475200	0
49	6364	478800	0
49	6412	482400	0
49	6460	486000	0
49	6508	489600	0
49	6556	493200	0
49	6604	496800	0
49	6652	500400	0
49	6698	504000	0
49	6746	507600	0
49	6794	511200	0
49	6842	514800	0
49	6890	518400	0
49	6938	522000	0
49	6986	525600	0
49	7034	529200	0
49	7082	532800	0
49	7130	536400	0
49	7178	540000	0
49	7222	543600	0
49	7270	547200	0
49	7318	550800	0
49	7366	554400	0
49	7414	558000	0
49	7458	561600	1
49	7506	565200	0
49	7554	568800	0
49	7602	572400	0
49	7650	576000	0
49	7698	579600	0
49	7746	583200	0
49	7794	586800	0
49	7842	590400	0
49	7888	594000	0
49	7936	597600	0
49	7984	601200	0
49	8031	604800	0
49	8031	604800	0

